/*--------------------------------*- C++ -*----------------------------------*\
| =========                 |                                                 |
| \\      /  F ield         | OpenFOAM: The Open Source CFD Toolbox           |
|  \\    /   O peration     | Version:  2206                                  |
|   \\  /    A nd           | Website:  www.openfoam.com                      |
|    \\/     M anipulation  |                                                 |
\*---------------------------------------------------------------------------*/
FoamFile
{
    version     2.0;
    format      ascii;
    arch        "LSB;label=32;scalar=64";
    class       featureEdgeMesh;
    location    "constant/triSurface";
    object      elevator.eMesh;
}
// * * * * * * * * * * * * * * * * * * * * * * * * * * * * * * * * * * * * * //


// points:

159
(
(0.486417 -0.282998 0.265387)
(0.484805 -0.282998 0.262857)
(0.484805 -1.597 0.262857)
(0.486417 -1.597 0.265387)
(0.484805 0.283002 0.262857)
(0.486417 0.283002 0.265387)
(0.486417 1.597 0.265387)
(0.484805 1.597 0.262857)
(0.341796 -0.282998 0.350952)
(0.339057 -0.282998 0.35466)
(0.352613 -0.282998 0.394202)
(0.353081 -0.282998 0.394223)
(0.349382 -0.282998 0.393631)
(0.363512 -0.282998 0.333772)
(0.353935 -0.282998 0.339988)
(0.350524 -0.282998 0.342749)
(0.347063 -0.282998 0.34555)
(0.343707 -0.282998 0.348992)
(0.354955 -0.282998 0.394307)
(0.361299 -0.282998 0.393725)
(0.361348 -0.282998 0.393721)
(0.367731 -0.282998 0.392107)
(0.367891 -0.282998 0.392067)
(0.374614 -0.282998 0.389324)
(0.337829 -0.282998 0.356323)
(0.33603 -0.282998 0.35974)
(0.335214 -0.282998 0.361289)
(0.334134 -0.282998 0.364453)
(0.33362 -0.282998 0.365961)
(0.333041 -0.282998 0.368997)
(0.433508 -0.282998 0.331974)
(0.421004 -0.282998 0.347432)
(0.332939 -0.282998 0.369534)
(0.332857 -0.282998 0.371406)
(0.33278 -0.282998 0.373165)
(0.37623 -0.282998 0.388422)
(0.381714 -0.282998 0.385358)
(0.387222 -0.282998 0.381463)
(0.402412 -0.282998 0.368166)
(0.406191 -0.282998 0.364431)
(0.417799 -0.282998 0.351394)
(0.333011 -0.282998 0.37514)
(0.333174 -0.282998 0.376537)
(0.333813 -0.282998 0.378791)
(0.389356 -0.282998 0.379954)
(0.397505 -0.282998 0.373013)
(0.334166 -0.282998 0.380038)
(0.335203 -0.282998 0.382262)
(0.335598 -0.282998 0.383111)
(0.337177 -0.282998 0.385438)
(0.337642 -0.282998 0.386122)
(0.339646 -0.282998 0.388248)
(0.34257 -0.282998 0.390587)
(0.342854 -0.282998 0.390805)
(0.345837 -0.282998 0.392416)
(0.339967 -0.282998 0.388589)
(0.349274 -0.282998 0.393612)
(0.332768 -1.597 0.371872)
(0.332802 -1.597 0.371404)
(0.35133 -1.597 0.394038)
(0.349395 -1.597 0.393577)
(0.338432 -1.597 0.35539)
(0.339018 -1.597 0.354633)
(0.342437 -1.597 0.350214)
(0.343683 -1.597 0.348971)
(0.336857 -1.597 0.385089)
(0.335178 -1.597 0.38227)
(0.362191 -1.597 0.393566)
(0.361292 -1.597 0.39367)
(0.355958 -1.597 0.394285)
(0.332939 -1.597 0.369534)
(0.333052 -1.597 0.369)
(0.333954 -1.597 0.364751)
(0.334077 -1.597 0.364434)
(0.335795 -1.597 0.360009)
(0.335967 -1.597 0.359708)
(0.363512 -1.597 0.333772)
(0.433508 -1.597 0.331974)
(0.421045 -1.597 0.347465)
(0.382944 -1.597 0.384565)
(0.376251 -1.597 0.38846)
(0.375618 -1.597 0.388828)
(0.354955 -1.597 0.394307)
(0.353086 -1.597 0.394168)
(0.348028 -1.597 0.393251)
(0.345864 -1.597 0.392352)
(0.344667 -1.597 0.391854)
(0.334995 -1.597 0.381962)
(0.333746 -1.597 0.37881)
(0.420059 -1.597 0.348691)
(0.409222 -1.597 0.361184)
(0.402411 -1.597 0.368167)
(0.347549 -1.597 0.345112)
(0.350517 -1.597 0.342742)
(0.387204 -1.597 0.381441)
(0.354249 -1.597 0.339761)
(0.390885 -1.597 0.378741)
(0.399608 -1.597 0.371041)
(0.368706 -1.597 0.391789)
(0.367717 -1.597 0.392059)
(0.342581 -1.597 0.390564)
(0.341784 -1.597 0.390071)
(0.339658 -1.597 0.38823)
(0.339033 -1.597 0.387688)
(0.337157 -1.597 0.385448)
(0.332962 -1.597 0.375256)
(0.332955 -1.597 0.375147)
(0.363512 0.283002 0.333772)
(0.433508 0.283002 0.331974)
(0.376271 0.283002 0.388495)
(0.367734 0.283002 0.392118)
(0.345837 0.283002 0.392416)
(0.342553 0.283002 0.390608)
(0.349381 0.283002 0.393639)
(0.335947 0.283002 0.359696)
(0.338972 0.283002 0.354597)
(0.361299 0.283002 0.393729)
(0.354955 0.283002 0.394307)
(0.332782 0.283002 0.371403)
(0.332939 0.283002 0.369534)
(0.35308 0.283002 0.394243)
(0.332947 0.283002 0.375148)
(0.333746 0.283002 0.37881)
(0.335155 0.283002 0.382284)
(0.334054 0.283002 0.364425)
(0.421061 0.283002 0.347478)
(0.402481 0.283002 0.368236)
(0.350448 0.283002 0.342655)
(0.387274 0.283002 0.381537)
(0.343627 0.283002 0.348914)
(0.339624 0.283002 0.38827)
(0.337133 0.283002 0.385468)
(0.333013 0.283002 0.368992)
(0.433508 1.597 0.331974)
(0.363512 1.597 0.333772)
(0.421061 1.597 0.347478)
(0.332939 1.597 0.369534)
(0.332782 1.597 0.371403)
(0.354955 1.597 0.394307)
(0.361299 1.597 0.393729)
(0.367734 1.597 0.392118)
(0.376271 1.597 0.388495)
(0.387274 1.597 0.381537)
(0.402481 1.597 0.368236)
(0.350448 1.597 0.342655)
(0.332947 1.597 0.375148)
(0.333746 1.597 0.37881)
(0.335155 1.597 0.382284)
(0.339624 1.597 0.38827)
(0.342553 1.597 0.390608)
(0.345837 1.597 0.392416)
(0.343627 1.597 0.348914)
(0.338972 1.597 0.354597)
(0.335947 1.597 0.359696)
(0.349381 1.597 0.393639)
(0.35308 1.597 0.394243)
(0.334054 1.597 0.364425)
(0.333013 1.597 0.368992)
(0.337133 1.597 0.385468)
)


// edges:

163
(
(8 9)
(10 11)
(12 10)
(13 14)
(14 15)
(15 16)
(16 17)
(17 8)
(11 18)
(18 19)
(19 20)
(20 21)
(21 22)
(22 23)
(9 24)
(24 25)
(25 26)
(26 27)
(27 28)
(28 29)
(30 0)
(0 1)
(1 13)
(31 30)
(29 32)
(32 33)
(33 34)
(23 35)
(35 36)
(36 37)
(38 39)
(39 40)
(40 31)
(34 41)
(41 42)
(42 43)
(37 44)
(44 45)
(45 38)
(43 46)
(46 47)
(47 48)
(48 49)
(49 50)
(50 51)
(52 53)
(53 54)
(51 55)
(55 52)
(56 12)
(54 56)
(57 58)
(59 60)
(61 62)
(62 63)
(63 64)
(65 66)
(67 68)
(68 69)
(70 71)
(71 72)
(72 73)
(73 74)
(74 75)
(75 61)
(2 3)
(76 2)
(3 77)
(77 78)
(58 70)
(79 80)
(80 81)
(69 82)
(82 83)
(83 59)
(60 84)
(84 85)
(85 86)
(87 88)
(66 87)
(78 89)
(89 90)
(90 91)
(64 92)
(92 93)
(94 79)
(93 95)
(96 94)
(95 76)
(97 96)
(91 97)
(81 98)
(98 99)
(99 67)
(86 100)
(100 101)
(101 102)
(102 103)
(103 104)
(104 65)
(88 105)
(105 106)
(106 57)
(3 0)
(2 1)
(4 5)
(107 4)
(5 108)
(109 110)
(111 112)
(113 111)
(114 115)
(110 116)
(116 117)
(118 119)
(117 120)
(120 113)
(121 118)
(122 121)
(123 122)
(124 114)
(108 125)
(125 126)
(127 107)
(126 128)
(129 127)
(115 129)
(112 130)
(130 131)
(131 123)
(128 109)
(119 132)
(132 124)
(133 6)
(6 7)
(7 134)
(135 133)
(136 137)
(138 139)
(139 140)
(140 141)
(141 142)
(143 135)
(134 144)
(142 143)
(145 146)
(146 147)
(148 149)
(149 150)
(144 151)
(151 152)
(152 153)
(150 154)
(154 155)
(155 138)
(153 156)
(156 157)
(157 136)
(137 145)
(147 158)
(158 148)
(5 6)
(4 7)
)

// * * * * * * * * * * * * * * * * * * * * * * * * * * * * * * * * * * * * * //


// ************************************************************************* //
