/*--------------------------------*- C++ -*----------------------------------*\
| =========                 |                                                 |
| \\      /  F ield         | OpenFOAM: The Open Source CFD Toolbox           |
|  \\    /   O peration     | Version:  2206                                  |
|   \\  /    A nd           | Website:  www.openfoam.com                      |
|    \\/     M anipulation  |                                                 |
\*---------------------------------------------------------------------------*/
FoamFile
{
    version     2.0;
    format      ascii;
    arch        "LSB;label=32;scalar=64";
    class       featureEdgeMesh;
    location    "constant/triSurface";
    object      fuselage.eMesh;
}
// * * * * * * * * * * * * * * * * * * * * * * * * * * * * * * * * * * * * * //


// points:

11210
(
(-0.017189 -0.0041803 0.354641)
(-0.0200832 -0.000300493 0.351068)
(-0.0200832 -0.000300493 0.349754)
(-0.0148313 -0.00450376 0.345368)
(-0.0112381 0.00204146 0.339289)
(-0.0148325 0.00450437 0.345366)
(-0.0200832 0.000300607 0.351068)
(-0.0200832 0.000300607 0.349754)
(3.52052 -3.98045 0.642845)
(0.169358 0.0208049 -0.0212729)
(0.174728 0.0231974 -0.0247638)
(3.72122 3.99005 1.56777)
(0.189572 -0.0204537 -0.050429)
(0.195999 -0.0216158 -0.0542574)
(0.184036 -0.0243034 -0.0359565)
(0.189572 0.0204537 -0.050429)
(0.195999 0.0216158 -0.0542574)
(0.199998 -0.0200022 -0.0600017)
(0.199998 0.0200022 -0.0600017)
(0.21512 0.0233072 -0.0653216)
(0.218534 0.0209154 -0.0707514)
(0.24783 0.0205887 -0.0804202)
(0.285595 0.023531 -0.0758978)
(0.282658 -0.0206677 -0.0804818)
(0.311887 0.0211107 -0.0709462)
(0.315132 0.0235481 -0.0654657)
(0.334251 -0.0221429 -0.0544979)
(0.330418 -0.0203859 -0.0603287)
(0.330418 0.0203859 -0.0603287)
(0.334251 0.0221429 -0.0544979)
(0.344506 -0.0221918 -0.0442926)
(0.340844 -0.0208288 -0.0508299)
(0.340844 0.0208288 -0.0508299)
(0.344506 0.0221918 -0.0442926)
(0.350382 -0.0204469 -0.0404877)
(0.355515 -0.0236511 -0.0252401)
(0.361059 0.0212144 -0.0220669)
(0.370034 0.0200504 -0.000118728)
(2.20982 -0.750297 -0.0501816)
(2.22555 -0.764674 -0.0511716)
(2.21891 -0.761123 -0.0507434)
(0.36913 -1.79018 0.349702)
(2.22926 -0.770503 -0.0504659)
(0.21512 -0.0233072 -0.0653216)
(2.20994 -0.689907 -0.0500636)
(2.21921 -0.679211 -0.0505819)
(2.22987 -0.669913 -0.0500922)
(2.14105 -3.37544 0.654992)
(2.25118 -0.779462 -0.0489501)
(2.41122 0.575 0.112723)
(2.41071 0.580413 0.110369)
(1.94017 1.8287 0.670633)
(2.95 -1.85 0.68)
(3.50778 -3.98219 1.62265)
(3.50778 -3.9771 1.62265)
(2.41209 0.552627 0.132157)
(3.5002 -3.98018 0.721454)
(3.5002 -3.97976 0.721454)
(3.52012 -3.98013 0.789574)
(3.52012 -3.97985 0.789574)
(2.40795 -0.778954 -0.0486526)
(2.40129 -0.780219 -0.0502542)
(3.17005 -3.76982 0.730003)
(0.185262 -1.69473 0.364783)
(2.43053 -0.770299 -0.0502419)
(0.430001 0.28 0.37)
(2.44462 -0.754426 -0.0509802)
(2.44103 -0.761064 -0.0505509)
(2.45093 -0.750711 -0.0503393)
(2.21512 -3.57412 0.647575)
(3.48888 3.97801 1.60134)
(3.48888 3.98124 1.60134)
(0.147934 -1.65294 0.356912)
(0.152218 -1.65577 0.354147)
(0.151993 -1.65577 0.365787)
(0.147934 -1.65294 0.362978)
(2.13952 0.371082 0.559604)
(3.42408 -3.9844 1.51591)
(2.19227 0.384532 0.275682)
(0.145586 0.0164506 0.245489)
(0.0997177 -1.55109 0.359265)
(0.10304 -1.55465 0.355559)
(0.102611 -1.55465 0.364401)
(0.0997177 -1.55109 0.360668)
(1.88963 -1.45291 0.679233)
(2.64315 -0.718971 -0.0205071)
(2.64589 -0.715382 -0.0178424)
(2.64589 -0.724725 -0.0182336)
(2.64315 -0.721208 -0.0205071)
(2.7028 -0.719552 -0.0103799)
(2.7028 -0.720517 -0.0103799)
(0.0388702 -0.0311693 0.10106)
(2.87136 2.34681 0.669075)
(2.87136 2.34681 0.670811)
(2.41179 -0.409387 0.249465)
(2.69669 -3.97192 0.637977)
(0.197167 -1.70291 0.349372)
(0.1905 -1.69946 0.350424)
(3.205 -0.182844 0.731142)
(0.0914384 0.245454 0.364048)
(0.0899757 0.242424 0.36008)
(0.113089 1.58501 0.355128)
(0.10938 1.58168 0.358546)
(0.10938 1.58168 0.36126)
(0.112686 1.58501 0.364756)
(3.39517 3.98263 1.48459)
(3.3892 3.98073 1.48098)
(0.218534 -0.0209154 -0.0707514)
(2.71756 3.98064 0.639075)
(0.0295545 0.0305105 0.0791656)
(0.0295545 0.0305105 0.0815957)
(2.75005 0.719954 0.02053)
(2.75005 0.719954 0.0185729)
(2.75005 0.720053 0.0185729)
(2.75005 0.720053 0.02053)
(3.18 -1.85 0.7)
(3.18 -1.85 0.7)
(0.18755 -1.6928 0.349423)
(0.200412 -1.70957 0.350527)
(2.25 -0.580004 0.109989)
(0.224889 -1.72518 0.348621)
(0.235531 -1.73471 0.348846)
(0.228149 -1.73118 0.349453)
(3.26939 3.96895 1.34073)
(3.27541 3.96527 1.3445)
(3.40483 -3.98329 1.49501)
(3.39518 -3.98263 1.48459)
(3.47715 -3.96086 0.495)
(2.53557 3.88504 0.656579)
(2.52718 3.88173 0.657987)
(0.239218 -1.74046 0.349688)
(0.257652 -1.75106 0.349298)
(3.51735 -3.98243 1.63167)
(3.51735 -3.97691 1.63167)
(3.51035 -3.98032 0.681685)
(3.66006 3.97998 1.31974)
(3.66006 3.98005 1.31974)
(0.27315 -1.47314 0.347714)
(0.282431 1.47192 0.35685)
(0.285459 1.4731 0.364857)
(0.282431 -1.47192 0.35685)
(0.285459 -1.4731 0.364857)
(0.291149 -1.47134 0.368096)
(0.294689 1.47225 0.37576)
(3.45785 -3.98189 1.56262)
(3.46436 -3.98442 1.56557)
(0.304208 1.47213 0.385698)
(1.77992 0.610623 0.689832)
(3.55048 3.97957 0.897672)
(3.55048 3.98047 0.897672)
(3.55044 3.9796 0.532062)
(3.55044 3.98044 0.532062)
(2.33509 3.72497 0.647504)
(2.32835 3.72161 0.648984)
(0.384 1.6 0.384)
(0.38 -1.6 0.39)
(0.384 -1.6 0.384)
(0.331004 1.47182 0.399831)
(0.322917 -1.48232 0.402856)
(0.399901 1.6 0.34)
(0.464 1.6 0.354)
(0.41 -1.6 0.38)
(0.414 1.6 0.374)
(0.434001 1.6 0.364001)
(0.430001 -1.6 0.37)
(0.434001 -1.6 0.364001)
(3.34535 3.98209 1.42438)
(0.46 -1.6 0.36)
(0.479021 -1.80146 0.339981)
(0.479021 -1.80146 0.340064)
(0.487542 -1.81267 0.339931)
(0.487542 -1.81267 0.340127)
(-0.011758 -0.0111073 0.347648)
(0.480001 -1.6 0.35)
(0.484001 -1.6 0.344001)
(0.500001 1.6 0.34)
(0.500001 1.6 0.34)
(0.0281211 0.024928 0.0754993)
(0.0381909 0.0221501 0.0587208)
(0.0387662 -0.041311 0.0772351)
(0.064269 -0.0425981 0.054269)
(0.0571279 0.0414434 0.057115)
(0.064269 0.0425981 0.054269)
(0.067115 -0.0414434 0.047102)
(0.0742612 -0.0425981 0.0442612)
(0.0378891 -0.0347016 0.094436)
(3.03 1.85 0.73)
(0.0478939 0.0213912 0.111262)
(0.0677373 -0.0403635 0.100234)
(0.0640889 0.0231166 0.115911)
(2.23483 3.60478 0.646908)
(2.22921 3.6013 0.649181)
(0.171456 1.67826 0.351209)
(0.178123 1.68234 0.349505)
(0.175279 -1.68469 0.364729)
(2.19885 0.405888 0.25487)
(1.83964 1.05311 0.679502)
(2.42307 -0.187648 0.447958)
(2.23726 0.505 0.157343)
(3.16919 -3.9712 1.22097)
(0.159562 1.66066 0.349834)
(0.501983 1.82038 0.339884)
(0.497129 1.82038 0.339884)
(0.497129 1.82038 0.34016)
(0.501983 1.82038 0.34016)
(3.2 1.85 0.7)
(3.2 1.85 0.7)
(2.43009 -0.170141 0.470125)
(2.43009 -0.170141 0.469732)
(2.43009 -0.169625 0.469732)
(2.43009 -0.169625 0.470125)
(0.0914373 -0.245436 0.364048)
(0.089976 -0.242393 0.359938)
(0.0924587 -0.245436 0.355963)
(3.2 1.84911 0.7)
(3.2 1.84911 0.7)
(2.8602 2.0982 0.670112)
(2.8602 2.0982 0.669839)
(2.44956 3.83033 0.659371)
(0.0668149 0.0213434 0.121755)
(3.21097 -0.161553 0.740925)
(3.45471 3.98384 1.55515)
(3.44842 3.98148 1.55192)
(3.2407 -0.110204 0.860723)
(3.24358 -0.105553 0.864434)
(3.41446 -3.98388 1.50545)
(3.40804 -3.98157 1.50241)
(2.43009 0.16962 0.469729)
(2.43009 0.170143 0.469729)
(2.884 -1.85 0.675999)
(2.88 -1.85 0.67)
(2.88224 -1.845 0.669662)
(0.077102 -0.0414434 0.0371404)
(0.0843685 -0.0424501 0.0342842)
(0.0872808 0.0411968 0.028913)
(0.199196 -1.71068 0.360883)
(0.20632 -1.71393 0.36379)
(0.195586 -1.70447 0.364468)
(0.115794 -0.0418109 0.024639)
(0.119657 -0.0401315 0.0199203)
(3.2 3.42 0.72)
(3.2 3.42 0.72)
(0.103039 1.55465 0.355559)
(0.0997175 1.55109 0.359264)
(0.0997175 1.55109 0.360668)
(0.102626 1.55465 0.364401)
(3.60064 3.97978 1.08677)
(3.60064 3.98035 1.08677)
(2.41134 0.628539 0.058723)
(2.8602 -2.09821 0.66984)
(2.8602 -2.09821 0.670111)
(3.49833 3.97747 1.612)
(0.432299 -1.605 0.370932)
(3.32497 -3.97552 1.40515)
(3.32919 -3.96899 1.41095)
(3.3262 -3.96594 1.4036)
(3.38556 -3.96777 1.47423)
(3.37968 -3.96966 1.47038)
(2.02964 2.50331 0.659613)
(2.42179 -0.267856 0.378179)
(2.88026 2.59713 0.669875)
(2.88026 2.59713 0.670123)
(3.20016 -0.270817 0.710118)
(0.128587 1.62264 0.357424)
(0.128587 1.62264 0.362355)
(0.132228 1.62558 0.365413)
(3.23025 0.120204 0.788917)
(0.139087 1.64145 0.361477)
(3.69008 3.98013 1.43967)
(2.16939 -3.48163 0.661046)
(3.08215 1.845 0.720401)
(3.084 1.85 0.714001)
(3.08 1.85 0.72)
(0.169045 -1.68107 0.357876)
(0.175122 -1.68504 0.354276)
(0.169045 -1.68107 0.361276)
(2.27949 3.67062 0.649537)
(0.300346 1.47049 0.3796)
(0.38 1.6 0.39)
(2.20411 0.425 0.245)
(0.178788 -1.69124 0.357342)
(0.178788 -1.69124 0.361514)
(2.55839 3.90092 0.65888)
(0.170155 -0.0400908 0.100056)
(0.174093 -0.0417865 0.095143)
(0.170155 0.0400908 0.100056)
(0.192691 0.0410886 0.0909748)
(2.41024 -0.480082 0.200073)
(2.41281 -0.484049 0.194259)
(2.41497 -0.474905 0.195834)
(2.41414 -0.474518 0.202098)
(0.199986 0.0200136 0.110011)
(0.199986 -0.0200136 0.110011)
(0.215132 0.0233035 0.115314)
(0.155074 -0.0121327 0.235599)
(0.159552 1.67055 0.358877)
(2.41275 -0.517286 0.15779)
(3.50778 3.9771 1.62265)
(3.50778 3.98219 1.62265)
(0.175279 1.68469 0.364729)
(0.185261 1.69473 0.364784)
(0.178788 1.69124 0.361515)
(0.169046 1.68107 0.357876)
(0.169046 1.68107 0.361276)
(2.43848 3.82117 0.658004)
(3.2 -1.85 0.7)
(3.2 -1.85 0.7)
(2.75002 -0.720021 0.020231)
(2.75002 -0.720021 0.0193207)
(2.75002 -0.719982 0.0193207)
(2.75002 -0.719982 0.020231)
(3.18 1.85 0.7)
(3.18 1.85 0.7)
(3.2 3.83976 0.73)
(3.2 3.83976 0.73)
(3.2 3.84107 0.73)
(3.2 3.84107 0.73)
(0.497116 -1.82037 0.339888)
(0.501956 -1.82037 0.339888)
(0.501956 -1.82037 0.340154)
(0.497116 -1.82037 0.340154)
(2.46734 3.84191 0.665)
(3.16997 -1.31184 0.699999)
(3.20977 -3.97042 1.27027)
(3.20977 -3.96939 1.27027)
(3.22518 -3.97513 1.28484)
(3.22869 -3.97223 1.29155)
(2.95244 3.27939 0.679619)
(2.42058 0.313326 0.339583)
(2.42058 0.313326 0.341781)
(1.84003 1.05978 0.680119)
(2.41331 -0.504533 0.174694)
(2.41242 -0.500888 0.180791)
(3.2071 -3.96564 1.2651)
(2.24415 3.6158 0.645882)
(2.23805 3.61299 0.648354)
(2.23702 3.61454 0.655)
(3.2 -3.42 0.72)
(3.2 -3.42 0.72)
(2.43009 0.16962 0.470127)
(2.43009 0.170143 0.470127)
(0.247841 -0.0205904 0.130423)
(0.244705 0.0234306 0.125813)
(0.247841 0.0205904 0.130423)
(0.139087 -1.64145 0.361478)
(2.41256 0.53507 0.145009)
(2.41245 0.54236 0.142056)
(2.15929 -3.45223 0.661271)
(3.17541 -3.9749 1.22454)
(3.2 -1.8491 0.7)
(3.2 -1.8491 0.7)
(0.38 -0.28 0.39)
(0.384 -0.28 0.384)
(0.385996 -0.28 0.345996)
(0.389993 -0.28 0.34)
(0.384 0.28 0.384)
(3.2 1.83252 0.7)
(2.13961 3.3724 0.660904)
(3.40505 -3.96689 1.49482)
(3.39884 -3.96897 1.49137)
(0.265866 -1.47588 0.345004)
(0.118732 -1.60288 0.357519)
(0.118732 -1.60288 0.362247)
(3.21079 0.164939 0.734299)
(0.244698 -0.0234385 -0.0758164)
(3.71828 -3.985 1.55456)
(3.47566 -3.98194 1.584)
(3.47944 -3.98066 1.59067)
(2.13908 -0.338509 0.559487)
(2.42185 0.21904 0.419161)
(0.41 1.6 0.38)
(3.08 -1.85 0.72)
(3.084 -1.85 0.714001)
(2.18227 0.354257 0.305668)
(2.14089 -0.219265 0.435)
(0.0394458 -0.0406999 0.0907267)
(2.22392 0.485 0.185)
(3.43539 -3.98241 1.53433)
(0.365364 0.0228129 0.0541172)
(2.97323 3.26872 0.741697)
(0.361057 0.0212009 0.0720413)
(0.355511 0.0236547 0.0752248)
(0.370055 0.0200827 0.0501954)
(0.330449 -0.0204156 0.110349)
(0.33427 -0.0221505 0.104491)
(0.33427 0.0221505 0.104491)
(0.330449 0.0204156 0.110349)
(0.344496 0.0221951 0.0943106)
(0.340826 -0.0208122 0.100818)
(0.344496 -0.0221951 0.0943106)
(0.340826 0.0208122 0.100818)
(0.350408 -0.0204795 0.0905177)
(0.350408 0.0204795 0.0905177)
(0.0289353 -0.0215467 0.0683233)
(0.322917 -1.48232 0.398956)
(0.113089 -1.58501 0.355128)
(0.10938 -1.58168 0.358547)
(3.17081 3.2798 0.709895)
(0.41 -0.28 0.38)
(2.19968 3.55063 0.649621)
(0.294551 1.76563 0.347628)
(0.294551 1.76744 0.354925)
(0.297585 1.77087 0.351542)
(0.297585 1.77087 0.349119)
(3.44451 -3.95782 0.484475)
(0.464 0.28 0.354)
(0.414 -0.28 0.374)
(0.430002 -0.28 0.37)
(0.46 -0.28 0.36)
(0.464 -0.28 0.354)
(2.25504 -3.63465 0.647224)
(2.1594 0.2816 0.368606)
(3.37976 -3.98023 1.47029)
(3.24108 -0.111842 0.817025)
(2.02129 2.45589 0.674783)
(1.88 1.38002 0.679996)
(0.155 0.042165 0.0161952)
(3.19108 -0.150927 0.689895)
(0.46 0.28 0.36)
(3.0946 3.27786 0.725702)
(3.091 3.27977 0.730125)
(2.95245 -3.27938 0.679614)
(2.13972 0.390401 0.569669)
(2.03988 2.59103 0.65986)
(2.26981 -3.66024 0.660293)
(2.1298 3.27197 0.649794)
(0.361057 -0.0212009 0.0720413)
(3.27887 -3.96827 1.35134)
(2.18971 3.53063 0.649649)
(2.22921 -3.60128 0.661208)
(2.41115 0.586847 0.0978252)
(3.27541 -3.96527 1.34449)
(0.121937 -1.60573 0.365348)
(3.56023 -3.97978 0.929114)
(2.88 1.85 0.67)
(0.430001 1.6 0.37)
(0.480001 -0.28 0.35)
(0.500002 -0.28 0.34)
(0.500002 -0.28 0.34)
(2.12147 3.22567 0.664666)
(3.01275 -3.2794 0.74037)
(3.48888 -3.98124 1.60134)
(3.48888 -3.97801 1.60134)
(2.89014 2.86837 0.670062)
(2.89011 -2.8117 0.669939)
(2.61027 -0.719798 0.0800831)
(0.531396 -0.270246 0.33974)
(0.112689 -1.58501 0.364756)
(2.18974 0.380887 0.27947)
(0.131238 0.0110386 0.176919)
(1.97071 -2.07417 0.674564)
(3.71553 3.97911 1.5559)
(2.68101 0.409791 0.790144)
(3.52012 3.97985 0.789574)
(3.52012 3.98013 0.789574)
(0.328163 1.78045 0.349423)
(0.328163 1.78045 0.350678)
(3.13 1.85 0.7)
(2.23161 0.51463 0.164894)
(2.42047 -0.326706 0.328482)
(3.31968 -3.97123 1.40038)
(3.31968 -3.96956 1.40038)
(2.42022 0.418834 0.249268)
(2.42022 0.418834 0.250251)
(0.480001 0.28 0.35)
(2.67154 -0.720675 0.0604268)
(2.67154 -0.719419 0.0604268)
(0.12194 1.60573 0.365348)
(3.48533 -3.98284 1.5944)
(3.56023 3.97978 0.929113)
(0.224889 1.72518 0.348617)
(0.227088 1.73189 0.355)
(0.228149 1.73118 0.349453)
(2.89006 -2.69845 0.66994)
(2.89006 -2.69845 0.670061)
(0.372508 0.269 0.340006)
(0.118732 1.60288 0.362247)
(0.118732 1.60288 0.357516)
(3.44061 3.98041 0.479893)
(0.41 0.28 0.38)
(0.132662 -1.62558 0.354456)
(2.67153 0.719424 0.0604228)
(3.48526 3.97508 1.59465)
(2.97323 -3.26872 0.741699)
(2.22949 0.511049 0.168157)
(1.75017 0.399599 0.691417)
(1.75138 0.404369 0.69485)
(2.42047 0.326706 0.328482)
(2.41569 3.79465 0.648581)
(2.40858 3.79108 0.649397)
(2.65407 0.724027 -0.01696)
(2.35548 3.74467 0.648105)
(2.34876 3.74112 0.649279)
(2.41365 -0.485657 0.185448)
(2.41142 -0.490485 0.190432)
(2.41328 -0.494291 0.184475)
(2.41164 -0.489429 0.179501)
(2.57777 3.91116 0.658686)
(2.25974 0.599342 0.0796237)
(2.25818 0.595605 0.0848627)
(3.46999 -3.98001 1.58001)
(3.46999 -3.97998 1.58001)
(3.46774 -3.97599 1.57472)
(3.13993 -1.41669 0.700084)
(2.41245 -0.538024 0.138274)
(3.17091 -3.27979 0.720115)
(2.41161 0.558989 0.119117)
(2.42307 -0.19221 0.451971)
(2.89011 -2.8117 0.670064)
(2.46738 3.84187 0.657463)
(3.45785 3.98189 1.56261)
(3.74042 -3.99002 1.59917)
(3.74042 -3.98993 1.59917)
(3.01565 3.27764 0.73591)
(1.76993 -0.53052 0.700144)
(1.99022 -2.21847 0.67872)
(1.98034 -2.14755 0.675)
(2.1381 0.213191 0.427897)
(3.2 1.83252 0.7)
(3.37968 3.96966 1.47038)
(3.38555 3.96778 1.47423)
(3.55177 3.98039 0.499687)
(2.97323 -3.26872 0.738606)
(2.42024 0.470863 0.199675)
(2.42024 0.470863 0.200672)
(0.0394458 0.0406999 0.0907267)
(3.33583 3.96544 1.41403)
(3.52704 3.96888 1.63127)
(2.42144 0.250888 0.400792)
(2.3802 3.76984 0.650191)
(2.10993 3.15052 0.660251)
(2.10993 3.15052 0.65983)
(2.5056 3.86456 0.65479)
(3.43898 3.98101 1.54123)
(3.43539 3.98241 1.53433)
(3.3926 3.94978 0.478885)
(0.46 1.6 0.36)
(2.17982 0.339528 0.309742)
(2.17836 0.335717 0.314891)
(0.350382 0.0204469 -0.0404877)
(3.1691 -3.76316 0.729132)
(2.21359 0.455 0.215)
(3.56023 -3.98027 0.929114)
(2.73161 0.719759 0.0403116)
(2.73161 0.720276 0.0403116)
(2.65407 0.715977 -0.0165331)
(1.78999 0.69011 0.689967)
(0.0742613 0.0425981 0.0442613)
(2.13993 -0.400095 0.57988)
(2.13988 -0.400276 0.585)
(0.311851 0.0210955 0.120942)
(3.09191 -3.27957 0.699752)
(3.09515 -3.27774 0.704198)
(3.2578 3.9659 1.32447)
(2.0697 2.83247 0.659547)
(3.51036 3.97961 0.681686)
(3.51036 3.98032 0.681686)
(0.140835 0.0107523 0.197947)
(0.147935 1.65294 0.362973)
(0.147935 1.65294 0.356908)
(2.55839 -3.90092 0.658881)
(2.55504 -3.89539 0.65605)
(3.15013 -1.17249 0.699999)
(3.44505 3.98316 1.54474)
(2.13908 0.338512 0.559489)
(2.13681 0.335107 0.564414)
(3.55044 -3.98044 0.532064)
(3.55044 -3.97959 0.532064)
(2.42009 -0.159972 0.469975)
(2.42287 -0.155983 0.475732)
(2.42178 -0.278091 0.368329)
(2.42179 -0.274893 0.374982)
(1.9501 1.90927 0.670595)
(3.2437 -0.0952477 0.894297)
(2.95547 -3.27763 0.684153)
(3.50063 3.98031 0.7381)
(2.63708 3.94129 0.665)
(2.03993 -2.6105 0.670163)
(1.98969 -2.22243 0.669395)
(2.67153 0.720668 0.0604228)
(2.42024 -0.470863 0.200671)
(2.42031 -0.465292 0.205058)
(3.18016 -3.68297 0.720113)
(2.20995 0.68992 -0.0500547)
(3.21197 3.88741 0.727442)
(1.93028 1.74791 0.670726)
(3.24096 -0.07022 0.940249)
(1.76988 0.530945 0.689772)
(2.42054 0.445021 0.224883)
(0.129674 0.0103194 0.23079)
(2.89014 -2.86837 0.670061)
(2.31499 3.70499 0.6473)
(2.31832 3.71169 0.648932)
(0.218554 0.0209091 0.120746)
(0.282658 0.0206677 -0.0804818)
(3.49937 -3.975 0.490216)
(2.22926 0.770498 -0.0504621)
(2.13952 -0.371081 0.559605)
(2.13863 -0.374648 0.565043)
(3.28498 3.96467 1.355)
(1.79965 0.762749 0.689112)
(0.151994 1.65577 0.365784)
(2.12044 3.19684 0.650569)
(0.239901 -1.74006 0.360077)
(2.15712 0.245 0.387066)
(3.62002 3.97999 1.1599)
(3.62002 3.98001 1.1599)
(3.51035 -3.97961 0.681685)
(1.88963 1.45289 0.679235)
(3.18024 3.78944 0.729948)
(2.41141 0.601207 0.0910781)
(3.25991 3.96983 1.3301)
(3.25991 3.97021 1.3301)
(3.49833 3.98176 1.612)
(2.93993 3.15231 0.740398)
(2.47875 -3.85088 0.658641)
(2.5086 -3.87092 0.658717)
(2.53928 3.89043 0.659392)
(2.53557 -3.88504 0.656583)
(0.31511 -0.0235527 0.115458)
(2.07023 -2.83839 0.665)
(2.0697 -2.83248 0.659545)
(2.05993 -2.76055 0.670149)
(2.0497 -2.68223 0.670648)
(2.6383 3.9407 0.65926)
(2.13961 -3.37239 0.660896)
(2.13961 -3.37239 0.65832)
(2.14977 -3.4209 0.660469)
(2.03143 -2.53514 0.665441)
(2.1298 -3.30154 0.660541)
(2.1298 -3.30154 0.659279)
(2.13168 -3.30492 0.655567)
(2.4233 0.181807 0.461612)
(2.12147 -3.22567 0.664666)
(2.12182 -3.22567 0.655393)
(3.70006 3.97998 1.47975)
(3.70006 3.98014 1.47975)
(2.09982 -3.07138 0.65962)
(2.08974 -2.99202 0.659522)
(2.67713 3.945 0.637564)
(2.6779 3.95332 0.638098)
(2.09031 -2.98786 0.668296)
(2.08045 -2.9168 0.665)
(2.0797 -2.91239 0.659507)
(2.42163 0.285292 0.365057)
(2.42147 0.292113 0.361786)
(3.19061 -3.81856 0.729964)
(3.19061 -3.81856 0.730017)
(3.19147 -0.0214758 0.659753)
(3.66009 -3.98008 1.31962)
(3.66009 -3.97998 1.31962)
(3.52048 -3.96989 0.499723)
(2.18975 -3.53053 0.66042)
(2.1997 -3.55059 0.660495)
(2.20996 -3.57007 0.660062)
(2.20989 -3.5702 0.649869)
(2.22429 3.58556 0.646026)
(2.17876 3.50318 0.648691)
(2.41266 -0.527636 0.147962)
(1.89971 1.53223 0.679324)
(3.61001 -3.98001 1.11991)
(3.61001 -3.97999 1.11991)
(0.0924573 0.245454 0.355962)
(3.36463 3.98333 1.44525)
(3.36771 3.98161 1.45286)
(3.37424 3.98386 1.45572)
(0.227088 -1.73189 0.355)
(0.227968 -1.73134 0.361675)
(2.24923 -3.63109 0.649245)
(2.24912 -3.63125 0.661331)
(2.28544 -3.67437 0.647951)
(3.49833 -3.97747 1.612)
(0.159552 1.67055 0.360652)
(2.02129 -2.45589 0.674782)
(2.02153 -2.45589 0.665282)
(2.23483 -3.60478 0.646907)
(3.3892 -3.98073 1.48098)
(3.53016 3.98017 0.610601)
(2.4116 -0.614862 0.0750095)
(3.61001 3.97999 1.11991)
(3.61001 3.98001 1.11991)
(2.22949 -0.511049 0.168157)
(2.18992 -0.380124 0.290164)
(3.32919 3.96899 1.41095)
(3.21923 -3.97136 1.28092)
(0.462942 1.79188 0.350427)
(2.65012 0.720045 -0.02002)
(2.65012 0.719962 -0.02002)
(0.297585 -1.77087 0.351536)
(0.322917 1.48232 0.398956)
(0.322917 1.48232 0.402819)
(2.28544 3.67437 0.647953)
(2.90025 -3.14793 0.67878)
(3.68007 3.97998 1.3997)
(3.68007 3.98009 1.3997)
(3.62002 -3.98001 1.15989)
(3.62002 -3.97999 1.15989)
(2.11273 3.15431 0.655898)
(2.11174 3.15431 0.664151)
(1.89012 -1.44915 0.689252)
(0.159552 -1.67055 0.358875)
(0.159552 -1.67055 0.360653)
(2.42 -0.240003 0.400006)
(2.42144 -0.250888 0.400792)
(2.41092 -0.569471 0.109538)
(2.41071 -0.580414 0.110369)
(0.328163 -1.78045 0.349423)
(0.328163 -1.78045 0.350677)
(2.66 3.95 0.660005)
(2.65512 3.94874 0.664003)
(3.18055 -3.33676 0.720059)
(0.276766 -1.76117 0.349095)
(2.74042 -0.7202 -0.000284125)
(2.74042 -0.719825 -0.000284125)
(3.24256 -0.0817835 0.922696)
(3.24405 -0.0850701 0.914416)
(2.42098 0.240484 0.410432)
(3.50064 -3.97954 0.738098)
(2.41949 3.80038 0.649771)
(2.01157 2.38453 0.674266)
(1.89971 -1.53224 0.67932)
(1.86998 -1.30016 0.690046)
(3.5002 3.97976 0.721459)
(3.5002 3.98018 0.721459)
(1.97965 -2.14283 0.66938)
(1.96996 -2.07028 0.669932)
(1.97011 -2.06921 0.677606)
(1.96061 -1.99604 0.675)
(1.95995 -1.99033 0.669925)
(1.95986 -1.99105 0.680293)
(0.369137 1.79017 0.350196)
(0.369137 1.79017 0.349706)
(1.94964 -1.91275 0.680826)
(3.72669 -3.98594 1.57564)
(0.27406 1.75596 0.347776)
(0.531434 0.270246 0.339739)
(0.531434 0.270246 0.340259)
(3.02 1.85 0.69)
(2.32501 3.71501 0.647357)
(3.63007 3.97998 1.19975)
(3.63007 3.98004 1.19975)
(3.39926 3.95008 0.480587)
(2.64532 0.714811 0.0652024)
(3.1904 3.61317 0.720151)
(2.52718 -3.88173 0.657988)
(1.9497 1.9026 0.66958)
(0.297585 -1.77087 0.349119)
(1.99977 -2.30177 0.669489)
(2.00007 -2.28953 0.679729)
(2.42147 -0.288565 0.358744)
(2.42163 -0.285292 0.365057)
(0.331004 -1.47182 0.400435)
(0.331004 -1.47182 0.399831)
(2.25971 0.610734 0.079144)
(2.26199 0.614441 0.0754864)
(3.58034 3.97978 1.00682)
(3.58034 3.9803 1.00682)
(3.19479 0.285 0.698703)
(2.93002 1.93884 0.749997)
(2.93002 1.93884 0.750003)
(3.53059 3.97941 0.827811)
(3.53059 3.98056 0.827811)
(3.22916 -0.115 0.782627)
(2.74233 -0.720641 0.0323028)
(2.74539 -0.721128 0.0241386)
(2.74539 -0.719015 0.0241386)
(2.74233 -0.719441 0.0323028)
(3.54024 3.97975 0.859175)
(2.42108 0.299042 0.349162)
(3.24313 -0.0641981 0.944149)
(1.86997 1.30027 0.679939)
(2.64456 0.724347 0.0666856)
(2.10123 3.07482 0.66449)
(3.26797 3.98062 0.479454)
(2.25971 0.610734 0.0815338)
(2.68668 3.9633 0.637454)
(3.6701 -3.98011 1.35959)
(3.6701 -3.97997 1.35959)
(2.70199 -0.719499 0.0504788)
(2.41149 -0.625798 0.0656396)
(3.40483 3.98329 1.49501)
(3.39862 3.98117 1.49169)
(0.27406 1.75889 0.355709)
(2.57467 -3.90562 0.655929)
(3.52052 3.97948 0.642846)
(3.52052 3.98045 0.642846)
(0.24783 -0.0205887 -0.0804202)
(2.42118 -0.361607 0.301434)
(2.4211 -0.354722 0.304956)
(0.381414 -1.605 0.39047)
(2.06015 2.75895 0.662094)
(2.06068 2.76432 0.665256)
(0.0996026 1.52302 0.349683)
(2.73161 -0.720276 0.0403116)
(2.73161 -0.719759 0.0403116)
(2.41025 -0.499911 0.169922)
(3.59045 -3.98032 1.04679)
(3.59045 -3.97978 1.04679)
(3.51036 -3.98032 0.758526)
(3.51036 -3.97961 0.758526)
(3.70007 -3.98018 1.47971)
(3.70007 -3.97998 1.47971)
(2.09982 3.07137 0.660816)
(2.09982 3.07137 0.659623)
(2.15181 0.254466 0.395068)
(2.59446 -3.91574 0.656061)
(2.59744 3.92122 0.658694)
(2.22556 0.764675 -0.0511693)
(3.53016 -3.98017 0.610601)
(3.53016 -3.97982 0.610601)
(3.18025 3.31869 0.719831)
(3.54024 -3.98026 0.859175)
(3.54024 -3.97975 0.859175)
(3.54024 3.98026 0.859175)
(0.102852 -0.00445078 0.174365)
(2.25782 0.780278 -0.0503207)
(2.02153 2.45589 0.665281)
(3.49286 3.98084 0.489496)
(3.49572 3.98257 0.494095)
(2.42098 -0.240484 0.410432)
(2.94002 2.65859 0.749994)
(2.42035 -0.424464 0.244939)
(3.55177 -3.98039 0.499687)
(3.55177 -3.9796 0.499687)
(2.41329 0.494291 0.184474)
(2.41242 0.500888 0.18079)
(2.25504 3.63465 0.647225)
(2.41275 0.521707 0.161521)
(3.19026 -3.37888 0.719943)
(3.19026 -3.37888 0.720027)
(2.42446 -0.155125 0.484833)
(2.34526 3.73485 0.647768)
(3.21016 0.180682 0.72955)
(3.21016 0.180682 0.730205)
(3.18055 -3.33676 0.719775)
(0.118738 0.0110538 0.203146)
(2.11964 3.22279 0.658986)
(2.12182 3.22567 0.655392)
(3.44965 -3.96973 1.55041)
(3.44579 -3.96871 1.544)
(3.59045 3.97978 1.04679)
(3.59045 3.98032 1.04679)
(2.14947 3.41252 0.649404)
(2.13972 -0.3904 0.56967)
(3.49833 -3.98176 1.612)
(2.42031 0.465292 0.205058)
(2.41115 -0.590808 0.100723)
(0.141904 -0.0215291 0.122115)
(3.63009 -3.98005 1.19967)
(3.63009 -3.97998 1.19967)
(2.884 1.85 0.675999)
(3.72515 -3.99014 1.57564)
(2.0797 2.91239 0.659507)
(3.44084 -3.9597 0.479852)
(0.370034 -0.0200504 -0.000118728)
(0.500001 -1.6 0.34)
(0.500001 -1.6 0.34)
(1.7597 -0.452295 0.700679)
(2.42281 0.198079 0.438321)
(3.73155 3.98922 1.58717)
(3.73155 3.99006 1.58717)
(2.94003 3.15898 0.739987)
(2.42243 0.212718 0.432213)
(2.25743 3.64358 0.655)
(3.75221 3.98974 1.63016)
(3.75221 3.99009 1.63016)
(3.1803 3.6923 0.719944)
(3.1803 3.6923 0.72024)
(1.85978 -1.22165 0.690475)
(0.480001 1.6 0.35)
(0.484001 1.6 0.344001)
(2.91132 -3.26923 0.681046)
(3.5306 -3.98056 0.827805)
(3.5306 -3.97941 0.827805)
(3.52052 -3.97948 0.642845)
(2.41266 0.532116 0.151885)
(3.75227 -3.99009 1.63017)
(3.75227 -3.98973 1.63017)
(3.5404 3.98042 0.571502)
(2.702 0.720581 0.0504825)
(2.35914 3.75076 0.649499)
(0.35087 -0.282854 0.400241)
(0.393271 0.279367 0.343271)
(2.89006 2.69845 0.67006)
(2.64093 -0.719504 0.0702766)
(3.20162 0.225 0.713854)
(3.49298 3.96881 0.489476)
(2.63498 3.93553 0.656896)
(2.42111 0.365103 0.29498)
(2.42103 0.371702 0.291482)
(0.500002 0.28 0.34)
(0.500002 0.28 0.34)
(3.58034 -3.9803 1.00682)
(3.024 1.85 0.695999)
(2.08 -2.91001 0.670003)
(2.41478 -0.405632 0.255426)
(3.44437 3.98319 0.484331)
(3.57028 -3.98028 0.967474)
(3.57028 -3.97978 0.967474)
(-0.0104926 -0.0103595 0.360542)
(3.20089 -3.8673 0.730735)
(0.209972 -1.72002 0.360029)
(0.10938 -1.58168 0.36126)
(3.42408 3.9844 1.51591)
(3.21518 -3.8948 0.734003)
(3.21197 -3.88741 0.731496)
(2.09077 2.99521 0.664972)
(2.71755 -3.98065 0.639047)
(3.3262 3.96594 1.40359)
(3.24135 -0.0903932 0.910693)
(2.96812 0.0973747 0.627556)
(0.370055 -0.0200827 0.0501954)
(3.24285 0.0427957 0.961733)
(0.350887 0.282872 0.400251)
(0.399901 -1.6 0.34)
(2.14961 -0.250778 0.398447)
(3.21078 -0.164932 0.734302)
(3.38552 3.98191 1.47418)
(0.18882 -1.7011 0.357091)
(0.18882 -1.7011 0.361386)
(3.15013 -1.17249 0.700005)
(3.73245 3.9794 1.63087)
(3.47566 3.98194 1.584)
(2.42281 -0.198079 0.438321)
(2.64049 -0.322171 0.800301)
(3.18034 -3.79929 0.729948)
(3.18034 -3.79929 0.730012)
(2.41365 0.485657 0.185448)
(2.21993 -0.480115 0.200162)
(2.21993 -0.480115 0.198973)
(-0.0117602 0.011109 0.347645)
(2.17982 -0.350428 0.309448)
(2.68668 -3.96332 0.637455)
(2.68401 -3.95599 0.635577)
(2.41266 -0.532117 0.151886)
(3.25991 -3.97022 1.33011)
(3.25991 -3.96982 1.33011)
(2.6176 -3.93108 0.658882)
(2.61456 -3.9257 0.656367)
(3.41744 -3.98193 1.51318)
(1.93977 1.82204 0.669699)
(2.38686 3.77249 0.648766)
(2.39104 3.77915 0.651074)
(1.85996 1.2203 0.679938)
(3.31968 3.96956 1.40038)
(2.94002 -2.65859 0.749994)
(2.42054 0.4347 0.234903)
(3.03 -1.85 0.73)
(0.132225 -1.62558 0.365414)
(2.13019 3.27863 0.650322)
(2.4969 3.86206 0.657531)
(3.22047 0.131206 0.758709)
(2.87136 -2.34681 0.669073)
(2.87136 -2.34681 0.670812)
(2.88026 -2.59714 0.670123)
(2.70282 0.719545 -0.0103858)
(3.21197 -3.88741 0.727441)
(0.180884 -1.68901 0.350676)
(3.17013 -3.7813 0.719975)
(3.14 -1.85 0.709999)
(2.94002 -2.65859 0.750003)
(0.38 0.28 0.39)
(0.150513 -1.64933 0.350245)
(2.14402 0.225 0.415)
(2.25971 -0.610734 0.079144)
(1.99977 2.30177 0.671091)
(1.99977 2.30177 0.669493)
(2.46005 3.82997 0.650016)
(2.42494 -0.165405 0.474022)
(2.42405 -0.165775 0.468308)
(2.42307 0.187648 0.447958)
(2.42294 0.195145 0.445026)
(0.0381909 -0.0221502 0.0587208)
(3.47496 -3.96445 0.487999)
(2.6176 3.93108 0.65888)
(2.29522 3.68466 0.64758)
(2.29869 3.69144 0.649036)
(2.21891 0.761125 -0.0507434)
(2.42118 0.358239 0.298477)
(2.15022 3.41918 0.651341)
(2.4211 0.354722 0.304956)
(2.42101 0.351205 0.311076)
(2.70282 0.720523 -0.0103858)
(0.361059 -0.0212144 -0.0220669)
(2.53928 -3.89043 0.659392)
(2.19968 -3.55063 0.64962)
(2.89014 -2.86837 0.669951)
(0.276766 1.76117 0.349094)
(0.109292 1.5628 0.349537)
(0.169358 -0.0208049 -0.0212729)
(2.42054 -0.445021 0.224883)
(2.44866 3.8209 0.649539)
(3.69009 -3.98016 1.43961)
(2.16948 0.312563 0.339088)
(2.89006 2.69845 0.669941)
(3.71003 3.97999 1.51985)
(3.71003 3.98015 1.51985)
(3.73245 -3.9794 1.63087)
(2.40997 -0.56996 0.119924)
(3.3953 -3.96729 1.48452)
(2.5086 3.87092 0.658716)
(2.5086 3.87092 0.663281)
(2.4126 -0.635411 0.0552338)
(0.291149 1.47134 0.368096)
(3.72005 -3.97999 1.55979)
(3.58034 -3.97978 1.00682)
(1.98969 2.22242 0.669398)
(3.19016 3.3692 0.719956)
(3.19016 3.3692 0.72002)
(2.23974 0.529465 0.139675)
(2.36577 3.75445 0.648526)
(3.21973 0.129884 0.769618)
(2.4116 0.614862 0.0750095)
(2.41156 0.611664 0.0814341)
(3.38552 -3.98191 1.47418)
(0.331004 1.47182 0.400429)
(2.20489 -3.55438 0.64715)
(0.285667 -0.0235442 0.125914)
(3.7109 3.99004 1.54837)
(3.71272 3.99011 1.555)
(3.68011 -3.98014 1.39955)
(3.68011 -3.97997 1.39955)
(2.41134 -0.628539 0.058723)
(2.41156 -0.607868 0.0782065)
(2.41156 -0.611664 0.0814345)
(2.41009 -0.579953 0.0999592)
(2.41161 -0.558989 0.119117)
(2.41256 -0.53507 0.145009)
(2.41245 -0.542361 0.142056)
(2.41284 -0.511298 0.171156)
(2.41331 0.504533 0.174693)
(2.41284 0.511298 0.171156)
(1.75987 0.45108 0.689763)
(1.95995 1.99032 0.669927)
(2.41302 -0.478947 0.18908)
(2.42024 -0.469628 0.199675)
(2.42024 -0.470863 0.199675)
(2.42043 -0.45516 0.215005)
(2.42054 -0.434701 0.234903)
(2.42022 -0.418835 0.249269)
(2.42022 -0.418835 0.250251)
(2.42022 -0.420281 0.250251)
(2.41478 -0.404363 0.264539)
(3.19987 0.21993 0.719939)
(2.42037 0.389565 0.26962)
(2.42037 0.391506 0.26962)
(2.42037 -0.389565 0.26962)
(2.42055 -0.385608 0.275129)
(2.42037 -0.391506 0.271059)
(2.42037 -0.391506 0.26962)
(2.42088 -0.375392 0.285066)
(2.42088 0.375392 0.285066)
(2.42103 -0.3686 0.288777)
(2.42111 -0.365103 0.29498)
(2.42103 -0.371702 0.291482)
(2.42118 -0.358239 0.298477)
(2.42101 -0.348142 0.308478)
(2.4209 -0.344473 0.314777)
(2.42101 -0.351205 0.311076)
(2.42047 -0.330402 0.330359)
(2.42047 0.326706 0.330359)
(2.42047 0.330402 0.330359)
(1.97071 2.07417 0.674564)
(1.96996 2.07028 0.67094)
(0.531396 -0.270246 0.340258)