/*--------------------------------*- C++ -*----------------------------------*\
| =========                 |                                                 |
| \\      /  F ield         | OpenFOAM: The Open Source CFD Toolbox           |
|  \\    /   O peration     | Version:  v1906                                 |
|   \\  /    A nd           | Web:      www.OpenFOAM.com                      |
|    \\/     M anipulation  |                                                 |
\*---------------------------------------------------------------------------*/
FoamFile
{
    version     2.0;
    format      ascii;
    class       volScalarField;
    location    "0";
    object      ReThetat; //potreben za K-Omega SSTLM/gamma-Re transport model, v dokumentaciji je enačba
    //povezava:  https://www.openfoam.com/documentation/guides/latest/doc/guide-turbulence-ras-k-omega-sst-lm.html
    /*
    enačba: T_u = 100 \frac{\sqrt{\frac{2}{3k}}}{|u_{infinity}|}
    če T_u =< 1.3: 1173.51 - 589.428T_u + \frac{0.2196}{T_u^2}
    če T_u > 1.3: \frac{331.5}{(T_u - 0.5658)^0.671}
    odvisen od hitrosti bulk/mass flow-a - večinska hitrost
    */
}
// * * * * * * * * * * * * * * * * * * * * * * * * * * * * * * * * * * * * * //

dimensions      [0 0 0 0 0 0 0];

internalField   uniform 205.30208; //povzeto po raes-u, dodani patchi fuselage, ailerons in elevator. 

boundaryField
{
    movingWall
    {
        type            freestream;
        freestreamValue $internalField;
    }

    front
    {
        type            freestream;
        freestreamValue $internalField;
    }
    
    back 
    {
	    type		    freestream;
	    freestreamValue $internalField;
    }

    fuselage
    {
        type            zeroGradient;
    }

    ailerons
    {
        type            zeroGradient;
    }

    elevator
    {
        type            zeroGradient;
    }

}


// ************************************************************************* //
