/*--------------------------------*- C++ -*----------------------------------*\
| =========                 |                                                 |
| \\      /  F ield         | OpenFOAM: The Open Source CFD Toolbox           |
|  \\    /   O peration     | Version:  2206                                  |
|   \\  /    A nd           | Website:  www.openfoam.com                      |
|    \\/     M anipulation  |                                                 |
\*---------------------------------------------------------------------------*/
FoamFile
{
    version     2.0;
    format      ascii;
    arch        "LSB;label=32;scalar=64";
    class       polyBoundaryMesh;
    location    "constant/polyMesh";
    object      boundary;
}
// * * * * * * * * * * * * * * * * * * * * * * * * * * * * * * * * * * * * * //

6
(
    movingWall
    {
        type            patch;
        nFaces          1180;
        startFace       720106;
    }
    front
    {
        type            patch;
        nFaces          208;
        startFace       721286;
    }
    back
    {
        type            patch;
        nFaces          64;
        startFace       721494;
    }
    fuselage
    {
        type            wall;
        inGroups        2(letalo wall);
        nFaces          10795;
        startFace       721558;
    }
    ailerons
    {
        type            wall;
        inGroups        2(letalo wall);
        nFaces          539;
        startFace       732353;
    }
    elevator
    {
        type            wall;
        inGroups        2(letalo wall);
        nFaces          308;
        startFace       732892;
    }
)

// ************************************************************************* //
