/*--------------------------------*- C++ -*----------------------------------*\
| =========                 |                                                 |
| \\      /  F ield         | OpenFOAM: The Open Source CFD Toolbox           |
|  \\    /   O peration     | Version:  v1906                                 |
|   \\  /    A nd           | Web:      www.OpenFOAM.com                      |
|    \\/     M anipulation  |                                                 |
\*---------------------------------------------------------------------------*/
FoamFile
{
    version     2.0;
    format      ascii;
    class       dictionary;
    object      blockMeshDict;
}
// * * * * * * * * * * * * * * * * * * * * * * * * * * * * * * * * * * * * * //

scale   1;

vertices 
(
    (-10 -20 -10) // 0
    (-10  -5 -10) // 1
    (-10  -5  -5) // 2
    (-10 -20  -5) // 3

    ( -2 -20 -10) // 4 
    ( -2  -5 -10) // 5
    ( -2  -5  -5) // 6
    ( -2 -20  -5) // 7

    ( 20 -20 -10) // 8
    ( 20  -5 -10) // 9
    ( 20  -5  -5) // 10
    ( 20  -20 -5) // 11

    ( 40 -20 -10) // 12
    ( 40  -5 -10) // 13
    ( 40  -5  -5) // 14
    ( 40 -20  -5) // 15

    (-10  -5  5) // 16
    (-10 -20  5) // 17

    ( -2 -20  5) // 18
    ( -2  -5  5) // 19

    ( 20 -20  5) // 20
    ( 20  -5  5) // 21

    ( 40  -5  5) // 22
    ( 40 -20  5) // 23

    (-10 -20 10) //24
    (-10  -5 10) //25
    
    ( -2  -5 10) //26
    ( -2 -20 10) //27

    ( 20  -5 10) //28
    ( 20 -20 10) //29

    ( 40  -5 10) //30
    ( 40 -20 10) //31

    (-10   5 -5) // 32
    ( -2   5 -5) // 33

    (-10   5 -10) // 34
    ( -2   5 -10) // 35

    ( 20   5 -10) // 36
    ( 20  -5 -10) // 37

    ( 20   5  -5) // 38
    ( 20  -5  -5) // 39

    ( 40   5  -5) //40
    ( 40  -5  -5) //41

    ( 40   5 -10) //42

    (-10   5   5) //43

    ( -2   5   5) //44

    ( 20   5   5) //45

    ( 20   5  -5) //46

    ( 40   5   5) //47

    (-10   5  10) //48

    ( -2   5  10) //49

    ( 20   5  10) //50

    ( 40   5  10) //51

);

blocks // pogled vzdolž x osi (gor/dol → levo/desno → spredaj/sredina/zadaj)
(
    hex (0 1 2 3 4 5 6 7) (1 1 1) simpleGrading (1 1 1) // za sMH razdeli celice še bolj natančno, kvader spodaj desno spredaj
    hex (4 5 6 7 8 9 10 11) (1 1 1) simpleGrading (1 1 1) // kvader spodaj desno sredina
    hex (8 9 10 11 12 13 14 15) (1 1 1) simpleGrading (1 1 1) // kvader spodaj desno zadaj
    hex (17 16 19 18 3 2 6 7) (1 1 1) simpleGrading (1 1 1) // kvader sredina desno spredaj
    hex (18 19 21 20 7 6 10 11) (1 1 1) simpleGrading (1 1 1) // kvader sredina desno sredina
    hex (20 21 22 23 11 10 14 15) (1 1 1) simpleGrading (1 1 1) // kvader sredina desno zadaj
    hex (24 25 26 27 17 16 19 18) (1 1 1) simpleGrading (1 1 1) // kvader zgoraj desno spredaj
    hex (27 26 28 29 18 19 21 20) (1 1 1) simpleGrading (1 1 1) // kvader zgoraj desno sredina 
    hex (29 28 30 31 20 21 22 23) (1 1 1) simpleGrading (1 1 1) // kvader zgoraj desno zadaj

    hex (2 32 33 6 1 34 35 5) (1 1 1) simpleGrading (1 1 1) // kvader spodaj sredina spredaj
    hex (6 33 38 39 5 35 36 37) (1 1 1) simpleGrading (1 1 1) //kvader spodaj sredina sredina
    hex (39 38 40 41 37 36 42 13) (1 1 1) simpleGrading (1 1 1) //kvader spodaj sredina zadaj
    hex (16 43 44 19 2 32 33 6) (1 1 1) simpleGrading (1 1 1) // kvader sredina sredina spredaj
    hex (19 44 45 21 6 33 46 39) (1 1 1) simpleGrading (1 1 1) // kvader sredina sredina sredina
    hex (21 45 47 22 10 46 40 41) (1 1 1) simpleGrading (1 1 1) //kvader sredina sredina zadaj
    hex (25 48 49 26 16 43 44 19) (1 1 1) simpleGrading (1 1 1) // kvader zgoraj sredina spredaj 
    hex (26 49 50 28 19 44 45 21) (1 1 1) simpleGrading (1 1 1) // kvader zgoraj sredina sredina
    hex (28 50 51 30 21 45 47 22) (1 1 1) simpleGrading (1 1 1)
);

edges
(
);

/*boundary
(
    movingWall
    {
        type patch;
        faces
        (
		    (4 0 1 5)
            (7 4 5 6)
            (3 7 6 2)
            (0 3 2 1)
        );
    }
  
    front
    {
        type patch;
        faces
        (
            (7 3 0 4)
        );
    }

    back
    {
	    type patch;
	    faces
	    (
		    (5 1 2 6)
	    );
    }
);*/

mergePatchPairs
(
);

// ************************************************************************* //
