/*--------------------------------*- C++ -*----------------------------------*\
| =========                 |                                                 |
| \\      /  F ield         | OpenFOAM: The Open Source CFD Toolbox           |
|  \\    /   O peration     | Version:  v1906                                 |
|   \\  /    A nd           | Web:      www.OpenFOAM.com                      |
|    \\/     M anipulation  |                                                 |
\*---------------------------------------------------------------------------*/
FoamFile
{
    version     2.0;
    format      ascii;
    class       dictionary;
    object      blockMeshDict;
}
// * * * * * * * * * * * * * * * * * * * * * * * * * * * * * * * * * * * * * //

scale   1;

vertices //x -10 50 y -20 20 z -10 10
(
	(-10 20 -10)		//0
	(-10 4.5 -10)		//1
	(-10 -4.5 -10)		//2
	(-10 -20 -10)		//3
	(-10 20 -0.5)		//4
	(-10 4.5 -0.5)		//5
	(-10 -4.5 -0.5)		//6
	(-10 -20 -0.5)		//7
	(-10 20 2)			//8
	(-10 4.5 2)			//9
	(-10 -4.5 2)		//10
	(-10 -20 2)			//11
	(-10 20 10)			//12
	(-10 4.5 10)		//13
	(-10 -4.5 10)		//14
	(-10 -20 10)		//15
	(-0.5 20 -10)		//16
	(-0.5 4.5 -10)		//17
	(-0.5 -4.5 -10)		//18
	(-0.5 -20 -10)		//19
	(-0.5 20 -0.5)		//20
	(-0.5 4.5 -0.5)		//21
	(-0.5 -4.5 -0.5)	//22
	(-0.5 -20 -0.5)		//23
	(-0.5 20 2)			//24
	(-0.5 4.5 2)		//25
	(-0.5 -4.5 2)		//26
	(-0.5 -20 2)		//27
	(-0.5 20 10)		//28
	(-0.5 4.5 10)		//29
	(-0.5 -4.5 10)		//30
	(-0.5 -20 10)		//31
	(4.5 20 -10)		//32
	(4.5 4.5 -10)		//33
	(4.5 -4.5 -10)		//34
	(4.5 -20 -10)		//35
	(4.5 20 -0.5)		//36
	(4.5 4.5 -0.5)		//37
	(4.5 -4.5 -0.5)		//38
	(4.5 -20 -0.5)		//39
	(4.5 20 2)			//40
	(4.5 4.5 2)			//41
	(4.5 -4.5 2)		//42
	(4.5 -20 2)			//43
	(4.5 20 10)			//44
	(4.5 4.5 10)		//45
	(4.5 -4.5 10)		//46
	(4.5 -20 10)		//47
	(40 20 -10)			//48
	(40 4.5 -10)		//49
	(40 -4.5 -10)		//50
	(40 -20 -10)		//51
	(40 20 -0.5)		//52
	(40 4.5 -0.5)		//53
	(40 -4.5 -0.5)		//54
	(40 -20 -0.5)		//55
	(40 20 2)			//56
	(40 4.5 2)			//57
	(40 -4.5 2)			//58
	(40 -20 2)			//59
	(40 20 10)			//60
	(40 4.5 10)			//61
	(40 -4.5 10)		//62
	(40 -20 10)			//63


);

blocks
(
hex	(	0	4	5	1	16	20	21	17	) (	10	10	10	)	simpleGrading (	0.1	0.1	0.1	) // block 	0
hex	(	1	5	6	2	17	21	22	18	) (	10	90	10	)	simpleGrading (	0.1	1	0.1	) // block 	1
hex	(	2	6	7	3	18	22	23	19	) (	10	10	10	)	simpleGrading (	0.1	10	0.1	) // block 	2
hex	(	4	8	9	5	20	24	25	21	) (	25	10	10	)	simpleGrading (	1	0.1	0.1	) // block 	3
hex	(	5	9	10	6	21	25	26	22	) (	25	90	10	)	simpleGrading (	1	1	0.1	) // block 	4
hex	(	6	10	11	7	22	26	27	23	) (	25	10	10	)	simpleGrading (	1	10	0.1	) // block 	5
hex	(	8	12	13	9	24	28	29	25	) (	10	10	10	)	simpleGrading (	10	0.1	0.1	) // block 	6
hex	(	9	13	14	10	25	29	30	26	) (	10	90	10	)	simpleGrading (	10	1	0.1	) // block 	7
hex	(	10	14	15	11	26	30	31	27	) (	10	10	10	)	simpleGrading (	10	10	0.1	) // block 	8
hex	(	16	20	21	17	32	36	37	33	) (	10	10	50	)	simpleGrading (	0.1	0.1	1	) // block 	9
hex	(	17	21	22	18	33	37	38	34	) (	10	90	50	)	simpleGrading (	0.1	1	1	) // block 	10
hex	(	18	22	23	19	34	38	39	35	) (	10	10	50	)	simpleGrading (	0.1	10	1	) // block 	11
hex	(	20	24	25	21	36	40	41	37	) (	25	10	50	)	simpleGrading (	1	0.1	1	) // block 	12
hex	(	21	25	26	22	37	41	42	38	) (	25	90	50	)	simpleGrading (	1	1	1	) // block 	13
hex	(	22	26	27	23	38	42	43	39	) (	25	10	50	)	simpleGrading (	1	10	1	) // block 	14
hex	(	24	28	29	25	40	44	45	41	) (	10	10	50	)	simpleGrading (	10	0.1	1	) // block 	15
hex	(	25	29	30	26	41	45	46	42	) (	10	90	50	)	simpleGrading (	10	1	1	) // block 	16
hex	(	26	30	31	27	42	46	47	43	) (	10	10	50	)	simpleGrading (	10	10	1	) // block 	17
hex	(	32	36	37	33	48	52	53	49	) (	10	10	35	)	simpleGrading (	0.1	0.1	10	) // block 	18
hex	(	33	37	38	34	49	53	54	50	) (	10	90	35	)	simpleGrading (	0.1	1	10	) // block 	19
hex	(	34	38	39	35	50	54	55	51	) (	10	10	35	)	simpleGrading (	0.1	10	10	) // block 	20
hex	(	36	40	41	37	52	56	57	53	) (	25	10	35	)	simpleGrading (	1	0.1	10	) // block 	21
hex	(	37	41	42	38	53	57	58	54	) (	25	90	35	)	simpleGrading (	1	1	10	) // block 	22
hex	(	38	42	43	39	54	58	59	55	) (	25	10	35	)	simpleGrading (	1	10	10	) // block 	23
hex	(	40	44	45	41	56	60	61	57	) (	10	10	35	)	simpleGrading (	10	0.1	10	) // block 	24
hex	(	41	45	46	42	57	61	62	58	) (	10	90	35	)	simpleGrading (	10	1	10	) // block 	25
hex	(	42	46	47	43	58	62	63	59	) (	10	10	35	)	simpleGrading (	10	10	10	) // block 	26
);

edges
(
);

boundary
(
    movingWall
    {
        type patch;
        faces
        (
			//bottom
			(	0	1	17	16	) 
			(	1	2	18	17	)
			(	2	3	19	18	)
			(	16	17	33	32	)
			(	17	18	34	33	)
			(	18	19	35	34	)
			(	32	33	49	48	)
			(	33	34	50	49	)
			(	34	35	51	50	)
			//right					
			(	3	19	23	7	) 
			(	19	35	39	23	)
			(	35	51	55	39	)
			(	7	23	27	11	)
			(	23	39	43	27	)
			(	39	55	59	43	)
			(	11	27	31	15	)
			(	27	43	47	31	)
			(	43	59	63	47	)
			//top					
			(	15	31	30	14	) 
			(	31	47	46	30	)
			(	47	63	62	46	)
			(	14	30	29	13	)
			(	30	46	45	29	)
			(	46	62	61	45	)
			(	13	29	28	12	)
			(	29	45	44	28	)
			(	45	61	60	44	)
			
			//left
			(	12	28	24	8	) 
			(	28	44	40	24	)
			(	44	60	56	40	)
			(	8	24	20	4	)
			(	24	40	36	20	)
			(	40	56	52	36	)
			(	4	20	16	0	)
			(	20	36	32	16	)
			(	36	52	48	32	)
        );
    }
  
    front
    {
        type patch;
        faces
        (
			(	0	1	5	4	) //front
			(	1	2	6	5	)
			(	2	3	7	6	)
			(	4	5	9	8	)
			(	5	6	10	9	)
			(	6	7	11	10	)
			(	8	9	13	12	)
			(	9	10	14	13	)
			(	10	11	15	14	)

        );
    }

    back
    {
	    type patch;
	    faces
	    (
			(	48	49	53	52	) //back
			(	49	50	54	53	)
			(	50	51	55	54	)
			(	52	53	57	56	)
			(	53	54	58	57	)
			(	54	55	59	58	)
			(	56	57	61	60	)
			(	57	58	62	61	)
			(	58	59	63	62	)

	    );
    }
);

mergePatchPairs
(
);

// ************************************************************************* //
