/*--------------------------------*- C++ -*----------------------------------*\
| =========                 |                                                 |
| \\      /  F ield         | OpenFOAM: The Open Source CFD Toolbox           |
|  \\    /   O peration     | Version:  v1906                                 |
|   \\  /    A nd           | Web:      www.OpenFOAM.com                      |
|    \\/     M anipulation  |                                                 |
\*---------------------------------------------------------------------------*/
FoamFile
{
    version     2.0;
    format      ascii;
    class       dictionary;
    object      blockMeshDict;
}
// * * * * * * * * * * * * * * * * * * * * * * * * * * * * * * * * * * * * * //

scale   1;

vertices //podolgovat kvader, ki ima za glavno ploskev kocko velikost 40x40 (z in y os) ter je dolg 60 v x os (od -10 do 50)
(
    (-10 -20 -10) // 0 
    ( 40 -20 -10) // 1
    ( 40  20 -10) // 2
    (-10  20 -10) // 3
    (-10 -20  10) // 4
    ( 40 -20  10) // 5
    ( 40  20  10) // 6
    (-10  20  10) // 7
);

blocks
(
    hex (0 1 2 3 4 5 6 7) (30 15 15) simpleGrading (1 1 1) // za sMH razdeli celice še bolj natančno
);

edges
(
);

boundary
(
    movingWall
    {
        type patch;
        faces
        (
		    (4 0 1 5)
            (7 4 5 6)
            (3 7 6 2)
            (0 3 2 1)
        );
    }
  
    front
    {
        type patch;
        faces
        (
            (7 3 0 4)
        );
    }

    back
    {
	    type patch;
	    faces
	    (
		    (5 1 2 6)
	    );
    }
);

mergePatchPairs
(
);

// ************************************************************************* //
