/*--------------------------------*- C++ -*----------------------------------*\
| =========                 |                                                 |
| \\      /  F ield         | OpenFOAM: The Open Source CFD Toolbox           |
|  \\    /   O peration     | Version:  2206                                  |
|   \\  /    A nd           | Website:  www.openfoam.com                      |
|    \\/     M anipulation  |                                                 |
\*---------------------------------------------------------------------------*/
FoamFile
{
    version     2.0;
    format      ascii;
    arch        "LSB;label=32;scalar=64";
    class       polyBoundaryMesh;
    location    "constant/polyMesh";
    object      boundary;
}
// * * * * * * * * * * * * * * * * * * * * * * * * * * * * * * * * * * * * * //

4
(
    movingWall
    {
        type            patch;
        nFaces          1264;
        startFace       1218073;
    }
    front
    {
        type            patch;
        nFaces          64;
        startFace       1219337;
    }
    back
    {
        type            patch;
        nFaces          136;
        startFace       1219401;
    }
    sphere_1m
    {
        type            wall;
        inGroups        1(wall);
        nFaces          28712;
        startFace       1219537;
    }
)

// ************************************************************************* //
