/*--------------------------------*- C++ -*----------------------------------*\
| =========                 |                                                 |
| \\      /  F ield         | OpenFOAM: The Open Source CFD Toolbox           |
|  \\    /   O peration     | Version:  v1906                                 |
|   \\  /    A nd           | Web:      www.OpenFOAM.com                      |
|    \\/     M anipulation  |                                                 |
\*---------------------------------------------------------------------------*/
FoamFile
{
    version     2.0;
    format      ascii;
    class       volScalarField;
    object      nut; // turbulent viscosity /eddy viscosity(?)
    //
}
// * * * * * * * * * * * * * * * * * * * * * * * * * * * * * * * * * * * * * //

dimensions      [0 2 -1 0 0 0 0];

internalField   uniform 0.14; //zato ker https://www.cfd-online.com/Forums/openfoam-solving/72176-nut-nutilda.html

boundaryField
{
    movingWall
    {
        type            freestream;
        freestreamValue $internalField;
    }

    front
    {
        type            freestream;
        freestreamValue $internalField;
    }

    back
    {
	    type 		    freestream;
	    freestreamValue $internalField;
    }			
	
	sphere_1m
    {
        type            nutUWallFunction;
        value           $internalField;
    }
}

// ************************************************************************* //
