/*--------------------------------*- C++ -*----------------------------------*\
| =========                 |                                                 |
| \\      /  F ield         | OpenFOAM: The Open Source CFD Toolbox           |
|  \\    /   O peration     | Version:  2206                                  |
|   \\  /    A nd           | Website:  www.openfoam.com                      |
|    \\/     M anipulation  |                                                 |
\*---------------------------------------------------------------------------*/
FoamFile
{
    version     2.0;
    format      ascii;
    arch        "LSB;label=32;scalar=64";
    class       polyBoundaryMesh;
    location    "3/polyMesh";
    object      boundary;
}
// * * * * * * * * * * * * * * * * * * * * * * * * * * * * * * * * * * * * * //

6
(
    movingWall
    {
        type            patch;
        nFaces          448;
        startFace       214499;
    }
    front
    {
        type            patch;
        nFaces          304;
        startFace       214947;
    }
    back
    {
        type            patch;
        nFaces          160;
        startFace       215251;
    }
    fuselage
    {
        type            wall;
        inGroups        2(letalo wall);
        nFaces          6561;
        startFace       215411;
    }
    ailerons
    {
        type            wall;
        inGroups        2(letalo wall);
        nFaces          460;
        startFace       221972;
    }
    elevator
    {
        type            wall;
        inGroups        2(letalo wall);
        nFaces          331;
        startFace       222432;
    }
)

// ************************************************************************* //
