/*--------------------------------*- C++ -*----------------------------------*\
| =========                 |                                                |
| \\      /  F ield         | cfMesh: A library for mesh generation          |
|  \\    /   O peration     |                                                |
|   \\  /    A nd           | Author: Franjo Juretic                         |
|    \\/     M anipulation  | E-mail: franjo.juretic@c-fields.com            |
\*---------------------------------------------------------------------------*/
FoamFile
{
    version   2.0;
    format    ascii;
    class     dictionary;
    location  "system";
    object    meshDict;
}

// * * * * * * * * * * * * * * * * * * * * * * * * * * * * * * * * * * * * * //

surfaceFile "geometry.fms";

minCellSize 0.1;

maxCellSize 0.5;

boundaryCellSize 0.3;

/*localRefinement
{
    "ringArea.*"
    {
        cellSize 0.2;
    }
}

boundaryLayers
{
    nLayers 5;

    thicknessRatio 1.1;

    maxFirstLayerThickness 0.5;

//    patchBoundaryLayers
//    {
//    }
}

renameBoundary
{
    defaultName     fixedWalls;
    defaultType     wall;

    newPatchNames
    {
        "inlet.*"
        {
            type    patch;
            newName inlet;
        }

        "outlet.*"
        {
            type    patch;
            newName outlet;
        }
    }
}*/


// ************************************************************************* //
