/*--------------------------------*- C++ -*----------------------------------*\
| =========                 |                                                 |
| \\      /  F ield         | OpenFOAM: The Open Source CFD Toolbox           |
|  \\    /   O peration     | Version:  2206                                  |
|   \\  /    A nd           | Website:  www.openfoam.com                      |
|    \\/     M anipulation  |                                                 |
\*---------------------------------------------------------------------------*/
FoamFile
{
    version     2.0;
    format      ascii;
    arch        "LSB;label=32;scalar=64";
    class       extendedFeatureEdgeMesh;
    location    "constant/extendedFeatureEdgeMesh";
    object      ailerons.extendedFeatureEdgeMesh;
}
// * * * * * * * * * * * * * * * * * * * * * * * * * * * * * * * * * * * * * //

// points

660
(
(3.2 -3.272 0.716453)
(3.2 -3.272 0.713453)
(3.19982 -1.853 0.698546)
(3.20018 -1.853 0.701517)
(3.2 3.272 0.713453)
(3.2 3.272 0.716453)
(3.20018 1.853 0.701517)
(3.19982 1.853 0.698546)
(3.17393 -3.272 0.719638)
(3.18099 -3.272 0.718776)
(3.19066 -3.272 0.71229)
(3.18132 -3.272 0.711126)
(3.17198 -3.272 0.709963)
(3.16264 -3.272 0.708799)
(3.16198 -3.272 0.721137)
(3.15942 -3.272 0.708399)
(3.14298 -3.272 0.723519)
(3.14396 -3.272 0.70639)
(3.12397 -3.272 0.725901)
(3.12527 -3.272 0.703963)
(3.1233 -3.272 0.725986)
(3.1188 -3.272 0.703123)
(3.10498 -3.272 0.728363)
(3.08786 -3.272 0.698939)
(3.08599 -3.272 0.730827)
(3.07811 -3.272 0.69762)
(3.05038 -3.272 0.693724)
(3.03729 -3.272 0.691884)
(3.04802 -3.272 0.735846)
(3.067 -3.272 0.733308)
(3.07122 -3.272 0.732744)
(2.98755 -3.272 0.744002)
(2.98823 -3.272 0.743952)
(2.98874 -3.272 0.743883)
(2.99111 -3.272 0.743558)
(2.99469 -3.272 0.743069)
(3.01008 -3.272 0.740965)
(3.01281 -3.272 0.688313)
(2.99636 -3.272 0.685914)
(3.02509 -3.272 0.738913)
(3.02905 -3.272 0.738384)
(2.96705 -3.272 0.738052)
(2.96846 -3.272 0.738937)
(2.97572 -3.272 0.742576)
(2.97644 -3.272 0.742834)
(2.97685 -3.272 0.742943)
(2.978 -3.272 0.743251)
(2.97352 -3.272 0.741721)
(2.97419 -3.272 0.742028)
(2.9746 -3.272 0.742176)
(2.97876 -3.272 0.743454)
(2.97917 -3.272 0.743527)
(2.98035 -3.272 0.743738)
(2.91386 -3.272 0.684908)
(2.91321 -3.272 0.686219)
(2.91271 -3.272 0.687455)
(2.91267 -3.272 0.687554)
(2.91231 -3.272 0.688758)
(2.91226 -3.272 0.68893)
(2.912 -3.272 0.690088)
(2.97511 -3.272 0.6827)
(2.95541 -3.272 0.679723)
(2.94206 -3.272 0.722225)
(2.95706 -3.272 0.731722)
(2.96462 -3.272 0.736512)
(2.97008 -3.272 0.739961)
(2.9704 -3.272 0.740142)
(2.97141 -3.272 0.740705)
(2.98111 -3.272 0.743874)
(2.98154 -3.272 0.743914)
(2.98274 -3.272 0.744027)
(2.98515 -3.272 0.744115)
(2.98587 -3.272 0.744123)
(2.98635 -3.272 0.744088)
(2.92032 -3.272 0.678284)
(2.91979 -3.272 0.678595)
(2.97199 -3.272 0.741026)
(2.97245 -3.272 0.741235)
(2.98349 -3.272 0.744098)
(2.98394 -3.272 0.744102)
(2.9404 -3.272 0.677399)
(2.93724 -3.272 0.676904)
(2.93279 -3.272 0.67621)
(2.93249 -3.272 0.676166)
(2.9313 -3.272 0.675995)
(2.931 -3.272 0.675952)
(2.9224 -3.272 0.677229)
(2.92148 -3.272 0.677661)
(2.91921 -3.272 0.678999)
(2.91861 -3.272 0.679418)
(2.91814 -3.272 0.679802)
(2.91747 -3.272 0.68036)
(2.91714 -3.272 0.680687)
(2.91641 -3.272 0.681394)
(2.91619 -3.272 0.681651)
(2.91547 -3.272 0.682484)
(2.91532 -3.272 0.68269)
(2.91463 -3.272 0.683649)
(2.91454 -3.272 0.683798)
(2.91299 -3.272 0.699972)
(2.9131 -3.272 0.700253)
(2.93009 -3.272 0.675896)
(2.92954 -3.272 0.675862)
(2.92886 -3.272 0.675877)
(2.92807 -3.272 0.675894)
(2.92762 -3.272 0.675942)
(2.92659 -3.272 0.676051)
(2.91325 -3.272 0.700573)
(2.91354 -3.272 0.701162)
(2.91372 -3.272 0.701548)
(2.91383 -3.272 0.701739)
(2.91416 -3.272 0.702298)
(2.91444 -3.272 0.702783)
(2.91486 -3.272 0.703377)
(2.91527 -3.272 0.703973)
(2.92076 -3.272 0.70873)
(2.92277 -3.272 0.710007)
(2.92637 -3.272 0.676093)
(2.92515 -3.272 0.676328)
(2.92389 -3.272 0.676684)
(2.92377 -3.272 0.676718)
(2.92267 -3.272 0.677126)
(2.92104 -3.272 0.677871)
(2.92089 -3.272 0.677953)
(2.91195 -3.272 0.690347)
(2.9118 -3.272 0.691435)
(2.91176 -3.272 0.691794)
(2.91171 -3.272 0.692789)
(2.91169 -3.272 0.693246)
(2.91172 -3.272 0.694141)
(2.91827 -3.272 0.707037)
(2.91875 -3.272 0.707391)
(2.9178 -3.272 0.706626)
(2.91174 -3.272 0.694679)
(2.91183 -3.272 0.695482)
(2.9119 -3.272 0.696103)
(2.91204 -3.272 0.696804)
(2.91219 -3.272 0.697524)
(2.91236 -3.272 0.698099)
(2.91562 -3.272 0.704393)
(2.91602 -3.272 0.70488)
(2.91718 -3.272 0.706094)
(2.91688 -3.272 0.705789)
(2.92407 -3.272 0.710829)
(2.92673 -3.272 0.71252)
(2.91259 -3.272 0.698918)
(2.91276 -3.272 0.699358)
(2.91943 -3.272 0.707884)
(2.91645 -3.272 0.705342)
(2.91617 -3.272 0.705061)
(3.19984 -2.03038 0.700409)
(3.19986 -2.20775 0.702273)
(3.20009 -2.5625 0.708985)
(3.19989 -2.38512 0.704136)
(3.19991 -2.5625 0.706)
(3.19993 -2.73988 0.707863)
(3.19995 -2.91725 0.709726)
(3.19998 -3.09462 0.71159)
(3.17791 -1.853 0.704703)
(3.16717 -1.853 0.706333)
(3.16554 -1.853 0.700485)
(3.17445 -1.853 0.700236)
(3.17698 -1.853 0.70011)
(3.18455 -1.853 0.703697)
(3.18454 -1.853 0.699733)
(3.18841 -1.853 0.699461)
(3.19354 -1.853 0.699099)
(3.15569 -1.853 0.708196)
(3.14888 -1.853 0.709301)
(3.1541 -1.853 0.7006)
(3.16401 -1.853 0.700528)
(3.1335 -1.853 0.711932)
(3.128 -1.853 0.712873)
(3.13123 -1.853 0.700043)
(3.13358 -1.853 0.700162)
(3.14266 -1.853 0.700442)
(3.14364 -1.853 0.700473)
(3.11135 -1.853 0.715855)
(3.11982 -1.853 0.699412)
(3.1232 -1.853 0.699639)
(3.08922 -1.853 0.719929)
(3.07147 -1.853 0.72323)
(3.08566 -1.853 0.696548)
(3.09866 -1.853 0.697795)
(3.10536 -1.853 0.716928)
(3.10841 -1.853 0.6986)
(3.11142 -1.853 0.698849)
(3.01967 -1.853 0.688937)
(3.04033 -1.853 0.691506)
(3.04499 -1.853 0.728267)
(3.02288 -1.853 0.732472)
(3.04129 -1.853 0.691625)
(3.06297 -1.853 0.694137)
(3.0671 -1.853 0.724061)
(3.06387 -1.853 0.694242)
(3.0836 -1.853 0.69635)
(3.01774 -1.853 0.688682)
(3.00077 -1.853 0.736678)
(2.99569 -1.853 0.685752)
(2.98432 -1.853 0.739808)
(2.97866 -1.853 0.740868)
(2.97276 -1.853 0.682524)
(2.96591 -1.853 0.743255)
(2.9689 -1.853 0.68198)
(2.95358 -1.853 0.745542)
(2.95237 -1.853 0.745704)
(2.92804 -1.853 0.675943)
(2.93726 -1.853 0.677336)
(2.92448 -1.853 0.736914)
(2.92092 -1.853 0.734664)
(2.91433 -1.853 0.730488)
(2.95835 -1.853 0.744661)
(2.95653 -1.853 0.744998)
(2.95376 -1.853 0.745509)
(2.95111 -1.853 0.74587)
(2.95098 -1.853 0.745877)
(2.94958 -1.853 0.745951)
(2.9485 -1.853 0.746008)
(2.94819 -1.853 0.745998)
(2.94679 -1.853 0.745957)
(2.85798 -1.853 0.688524)
(2.85792 -1.853 0.688263)
(2.85787 -1.853 0.687912)
(2.85779 -1.853 0.687297)
(2.86522 -1.853 0.670972)
(2.86538 -1.853 0.670873)
(2.86487 -1.853 0.671231)
(2.89387 -1.853 0.71753)
(2.89119 -1.853 0.715836)
(2.88356 -1.853 0.669223)
(2.94588 -1.853 0.745931)
(2.9454 -1.853 0.745877)
(2.94401 -1.853 0.745721)
(2.94125 -1.853 0.745243)
(2.94069 -1.853 0.745133)
(2.86331 -1.853 0.69789)
(2.86284 -1.853 0.697432)
(2.86229 -1.853 0.696901)
(2.85773 -1.853 0.686867)
(2.85772 -1.853 0.686682)
(2.85768 -1.853 0.686064)
(2.85783 -1.853 0.682642)
(2.858 -1.853 0.68179)
(2.8581 -1.853 0.68126)
(2.85828 -1.853 0.680603)
(2.85848 -1.853 0.679893)
(2.85865 -1.853 0.679439)
(2.85898 -1.853 0.678558)
(2.8591 -1.853 0.678303)
(2.85958 -1.853 0.677282)
(2.93988 -1.853 0.744905)
(2.93852 -1.853 0.74452)
(2.93814 -1.853 0.744411)
(2.8607 -1.853 0.694918)
(2.86055 -1.853 0.694718)
(2.86034 -1.853 0.694376)
(2.86 -1.853 0.693825)
(2.85765 -1.853 0.685457)
(2.85766 -1.853 0.684833)
(2.85768 -1.853 0.684218)
(2.85768 -1.853 0.684051)
(2.85779 -1.853 0.682997)
(2.86387 -1.853 0.671986)
(2.86406 -1.853 0.671823)
(2.86436 -1.853 0.671601)
(2.86878 -1.853 0.66916)
(2.86903 -1.853 0.669056)
(2.86939 -1.853 0.668948)
(2.87609 -1.853 0.668127)
(2.87663 -1.853 0.668191)
(2.94326 -1.853 0.745638)
(2.94262 -1.853 0.745513)
(2.93718 -1.853 0.744054)
(2.93585 -1.853 0.743554)
(2.93567 -1.853 0.743487)
(2.87631 -1.853 0.706408)
(2.8739 -1.853 0.704884)
(2.86899 -1.853 0.701778)
(2.86192 -1.853 0.696467)
(2.86148 -1.853 0.695967)
(2.8594 -1.853 0.692693)
(2.85919 -1.853 0.692275)
(2.85912 -1.853 0.692118)
(2.85888 -1.853 0.69153)
(2.85866 -1.853 0.690976)
(2.85846 -1.853 0.690341)
(2.85827 -1.853 0.689742)
(2.86023 -1.853 0.676139)
(2.86092 -1.853 0.675126)
(2.8611 -1.853 0.674872)
(2.86129 -1.853 0.674636)
(2.86168 -1.853 0.674161)
(2.87322 -1.853 0.668142)
(2.8739 -1.853 0.668109)
(2.87458 -1.853 0.668078)
(2.93455 -1.853 0.742957)
(2.93327 -1.853 0.742356)
(2.93199 -1.853 0.741615)
(2.93104 -1.853 0.741066)
(2.92948 -1.853 0.740084)
(2.86669 -1.853 0.700317)
(2.86548 -1.853 0.699554)
(2.86139 -1.853 0.695857)
(2.86109 -1.853 0.695445)
(2.85982 -1.853 0.693532)
(2.85969 -1.853 0.693264)
(2.85824 -1.853 0.689636)
(2.85812 -1.853 0.689134)
(2.862 -1.853 0.673778)
(2.86208 -1.853 0.673691)
(2.86251 -1.853 0.673248)
(2.86298 -1.853 0.672769)
(2.86341 -1.853 0.672394)
(2.86592 -1.853 0.670544)
(2.86642 -1.853 0.670236)
(2.86702 -1.853 0.669933)
(2.86759 -1.853 0.669646)
(2.87192 -1.853 0.668314)
(2.87257 -1.853 0.668227)
(2.87526 -1.853 0.668096)
(2.87745 -1.853 0.668288)
(2.87802 -1.853 0.668375)
(2.86437 -1.853 0.698772)
(2.86769 -1.853 0.6696)
(2.86818 -1.853 0.6694)
(2.87 -1.853 0.668757)
(2.8704 -1.853 0.668636)
(2.87063 -1.853 0.668585)
(2.87127 -1.853 0.668445)
(2.8718 -1.853 0.668329)
(3.19066 3.272 0.712272)
(3.18099 3.272 0.718779)
(3.18132 3.272 0.711091)
(3.1694 3.272 0.720198)
(3.10498 3.272 0.728386)
(3.08666 3.272 0.730716)
(3.08787 3.272 0.698882)
(3.12527 3.272 0.703959)
(3.12398 3.272 0.725971)
(3.12965 3.272 0.704554)
(3.14298 3.272 0.723556)
(3.14396 3.272 0.706364)
(3.16198 3.272 0.721141)
(3.16265 3.272 0.708728)
(3.17199 3.272 0.709909)
(2.93429 3.272 0.676445)
(2.9362 3.272 0.676743)
(2.94542 3.272 0.724351)
(2.94206 3.272 0.722225)
(2.94867 3.272 0.678682)
(2.95273 3.272 0.679309)
(2.95706 3.272 0.731722)
(2.97511 3.272 0.682658)
(2.96203 3.272 0.734873)
(2.91562 3.272 0.704392)
(2.91522 3.272 0.703899)
(2.93724 3.272 0.676905)
(2.93758 3.272 0.676959)
(2.92673 3.272 0.71252)
(2.9442 3.272 0.67799)
(2.98892 3.272 0.743865)
(2.98874 3.272 0.743883)
(2.98755 3.272 0.743998)
(2.98515 3.272 0.744112)
(2.98419 3.272 0.744126)
(2.98395 3.272 0.744109)
(2.98274 3.272 0.744025)
(3.08599 3.272 0.730806)
(3.06701 3.272 0.733352)
(3.05925 3.272 0.694997)
(3.04803 3.272 0.735899)
(3.05038 3.272 0.693733)
(3.02906 3.272 0.738445)
(3.02374 3.272 0.689932)
(3.01008 3.272 0.74099)
(3.01281 3.272 0.688297)
(2.99833 3.272 0.742566)
(2.99112 3.272 0.743563)
(2.98656 3.272 0.744093)
(2.98635 3.272 0.744096)
(2.97572 3.272 0.742574)
(2.97484 3.272 0.742284)
(2.9746 3.272 0.742181)
(2.97352 3.272 0.741719)
(2.92363 3.272 0.710553)
(2.93257 3.272 0.676175)
(2.92246 3.272 0.677202)
(2.92267 3.272 0.677125)
(2.92148 3.272 0.677659)
(2.98035 3.272 0.743736)
(2.97945 3.272 0.743598)
(2.97917 3.272 0.74353)
(2.978 3.272 0.74325)
(2.97712 3.272 0.743037)
(2.97685 3.272 0.742948)
(2.97062 3.272 0.740285)
(2.9704 3.272 0.740147)
(2.97142 3.272 0.740702)
(2.96842 3.272 0.738916)
(2.96462 3.272 0.736512)
(2.92277 3.272 0.710006)
(2.92076 3.272 0.708727)
(2.91927 3.272 0.707776)
(2.91876 3.272 0.707391)
(2.91812 3.272 0.706913)
(2.9178 3.272 0.706628)
(2.91516 3.272 0.703821)
(2.91486 3.272 0.703377)
(2.91449 3.272 0.702848)
(2.91392 3.272 0.684805)
(2.91454 3.272 0.683799)
(2.91468 3.272 0.683565)
(2.91533 3.272 0.682692)
(2.98181 3.272 0.74396)
(2.98154 3.272 0.743919)
(2.97262 3.272 0.741336)
(2.97245 3.272 0.741244)
(2.91705 3.272 0.705964)
(2.91688 3.272 0.705791)
(2.91645 3.272 0.70534)
(2.91606 3.272 0.704937)
(2.91434 3.272 0.702628)
(2.91416 3.272 0.7023)
(2.91384 3.272 0.701737)
(2.91363 3.272 0.701379)
(2.91353 3.272 0.701163)
(2.91326 3.272 0.700572)
(2.91303 3.272 0.700088)
(2.91299 3.272 0.699974)
(2.91276 3.272 0.699357)
(2.91253 3.272 0.698738)
(2.91235 3.272 0.698099)
(2.91217 3.272 0.69743)
(2.91204 3.272 0.696804)
(2.91189 3.272 0.69601)
(2.91183 3.272 0.695482)
(2.91173 3.272 0.694588)
(2.91172 3.272 0.694141)
(2.91169 3.272 0.693152)
(2.92384 3.272 0.676695)
(2.91554 3.272 0.682405)
(2.91619 3.272 0.681652)
(2.91648 3.272 0.681326)
(2.91714 3.272 0.680688)
(2.91753 3.272 0.680303)
(2.91814 3.272 0.679803)
(2.91867 3.272 0.679373)
(2.91921 3.272 0.679)
(2.92512 3.272 0.676341)
(2.92525 3.272 0.676307)
(2.92637 3.272 0.676096)
(2.92112 3.272 0.677824)
(2.9209 3.272 0.677956)
(2.92032 3.272 0.678284)
(2.91986 3.272 0.67855)
(2.91171 3.272 0.692789)
(2.91177 3.272 0.691698)
(2.9118 3.272 0.691435)
(2.91196 3.272 0.690254)
(2.912 3.272 0.690088)
(2.91231 3.272 0.688757)
(2.91271 3.272 0.687461)
(2.91323 3.272 0.686188)
(2.91384 3.272 0.684967)
(2.92669 3.272 0.676037)
(2.92762 3.272 0.675943)
(2.92815 3.272 0.675889)
(2.92886 3.272 0.675877)
(2.92963 3.272 0.675864)
(2.93009 3.272 0.675893)
(2.931 3.272 0.675952)
(2.9313 3.272 0.675995)
(3.19991 2.5625 0.706)
(3.19989 2.38512 0.704136)
(3.19986 2.20775 0.702273)
(3.20009 2.5625 0.708985)
(3.19984 2.03038 0.700409)
(3.19998 3.09462 0.71159)
(3.19995 2.91725 0.709726)
(3.19993 2.73988 0.707863)
(3.17792 1.853 0.704726)
(3.18841 1.853 0.699465)
(3.18695 1.853 0.699582)
(3.17698 1.853 0.700046)
(3.17197 1.853 0.705583)
(3.169 1.853 0.700417)
(3.16554 1.853 0.700448)
(3.15569 1.853 0.708229)
(3.1541 1.853 0.70055)
(3.15067 1.853 0.70058)
(3.14228 1.853 0.71041)
(3.14266 1.853 0.700382)
(3.13351 1.853 0.711964)
(3.13123 1.853 0.700033)
(3.11982 1.853 0.699387)
(3.11135 1.853 0.715891)
(3.13327 1.853 0.700149)
(3.11546 1.853 0.69914)
(3.10842 1.853 0.698561)
(3.10132 1.853 0.71767)
(3.09452 1.853 0.697417)
(3.08922 1.853 0.719949)
(3.08566 1.853 0.696513)
(3.06711 1.853 0.724116)
(3.04033 1.853 0.691443)
(3.02782 1.853 0.689978)
(3.03734 1.853 0.729726)
(3.045 1.853 0.728283)
(3.06297 1.853 0.694093)
(3.0699 1.853 0.694904)
(2.93569 1.853 0.743495)
(2.93585 1.853 0.743555)
(2.93718 1.853 0.744053)
(2.93988 1.853 0.744903)
(2.94076 1.853 0.745152)
(2.94125 1.853 0.745244)
(2.94262 1.853 0.74551)
(2.94867 1.853 0.746005)
(2.94958 1.853 0.745951)
(2.94819 1.853 0.745993)
(2.93819 1.853 0.74443)
(2.93852 1.853 0.744522)
(2.88274 1.853 0.710484)
(2.88677 1.853 0.713035)
(2.92804 1.853 0.675925)
(2.88356 1.853 0.669222)
(2.93325 1.853 0.742335)
(2.9334 1.853 0.742421)
(2.93455 1.853 0.742959)
(2.86458 1.853 0.698933)
(2.86551 1.853 0.699557)
(2.86743 1.853 0.700788)
(2.86907 1.853 0.701827)
(2.9454 1.853 0.745873)
(2.94602 1.853 0.74594)
(2.94679 1.853 0.745959)
(2.95098 1.853 0.745869)
(2.95136 1.853 0.745846)
(2.95237 1.853 0.745701)
(2.95376 1.853 0.745501)
(2.95402 1.853 0.745464)
(2.95653 1.853 0.744999)
(2.92448 1.853 0.736914)
(2.92948 1.853 0.740084)
(2.85772 1.853 0.686681)
(2.85776 1.853 0.687178)
(2.85778 1.853 0.687298)
(2.85788 1.853 0.687911)
(2.86069 1.853 0.694921)
(2.86109 1.853 0.695444)
(2.86149 1.853 0.695967)
(2.94338 1.853 0.745655)
(2.94401 1.853 0.745723)
(2.95707 1.853 0.744897)
(2.9606 1.853 0.744242)
(2.96468 1.853 0.743484)
(2.92193 1.853 0.735301)
(2.93107 1.853 0.741087)
(2.93199 1.853 0.741614)
(2.87578 1.853 0.668105)
(2.87526 1.853 0.668095)
(2.87663 1.853 0.668192)
(2.85913 1.853 0.692115)
(2.85932 1.853 0.692564)
(2.85939 1.853 0.692696)
(2.85969 1.853 0.693262)
(2.85998 1.853 0.693803)
(2.86034 1.853 0.694374)
(2.86158 1.853 0.696095)
(2.86192 1.853 0.696467)
(2.86236 1.853 0.696961)
(2.86252 1.853 0.697134)
(2.86284 1.853 0.697434)
(2.86333 1.853 0.697896)
(2.8659 1.853 0.699815)
(2.86669 1.853 0.700317)
(2.87353 1.853 0.704648)
(2.8739 1.853 0.704884)
(2.87618 1.853 0.706331)
(2.88288 1.853 0.669119)
(2.87924 1.853 0.708264)
(2.89117 1.853 0.71582)
(2.89387 1.853 0.71753)
(2.94597 1.853 0.678627)
(2.91433 1.853 0.730488)
(2.86276 1.853 0.672979)
(2.86251 1.853 0.673246)
(2.86295 1.853 0.67281)
(2.86353 1.853 0.698091)
(2.86438 1.853 0.698766)
(2.86919 1.853 0.701903)
(2.87121 1.853 0.703181)
(2.96938 1.853 0.742608)
(2.97433 1.853 0.741683)
(2.97277 1.853 0.68249)
(2.97866 1.853 0.740873)
(2.98876 1.853 0.684795)
(2.97951 1.853 0.740714)
(3.01775 1.853 0.688641)
(3.00077 1.853 0.736673)
(3.02289 1.853 0.732472)
(2.87434 1.853 0.668078)
(2.8739 1.853 0.668107)
(2.87323 1.853 0.668151)
(2.86939 1.853 0.668951)
(2.86873 1.853 0.669167)
(2.86818 1.853 0.6694)
(2.86759 1.853 0.669649)
(2.86646 1.853 0.670226)
(2.86615 1.853 0.670391)
(2.86209 1.853 0.673697)
(2.86179 1.853 0.674016)
(2.86168 1.853 0.674157)
(2.85766 1.853 0.685448)
(2.85765 1.853 0.68577)
(2.85768 1.853 0.686064)
(2.85866 1.853 0.69094)
(2.85877 1.853 0.691272)
(2.85888 1.853 0.691531)
(2.87721 1.853 0.668252)
(2.87802 1.853 0.668375)
(2.87458 1.853 0.668083)
(2.87291 1.853 0.668173)
(2.87257 1.853 0.668223)
(2.87192 1.853 0.668322)
(2.87149 1.853 0.668387)
(2.87127 1.853 0.668439)
(2.87063 1.853 0.668591)
(2.87 1.853 0.668749)
(2.86741 1.853 0.669726)
(2.86702 1.853 0.669931)
(2.86592 1.853 0.670541)
(2.86539 1.853 0.670879)
(2.86495 1.853 0.67116)
(2.86486 1.853 0.671224)
(2.86437 1.853 0.671603)
(2.86381 1.853 0.672027)
(2.85798 1.853 0.688568)
(2.85812 1.853 0.689133)
(2.85827 1.853 0.689741)
(2.86341 1.853 0.672394)
(2.86129 1.853 0.674639)
(2.8609 1.853 0.675131)
(2.86023 1.853 0.676142)
(2.85832 1.853 0.689932)
(2.85846 1.853 0.690342)
(2.86012 1.853 0.676317)
(2.85963 1.853 0.677204)
(2.85943 1.853 0.67756)
(2.8591 1.853 0.678305)
(2.85886 1.853 0.678851)
(2.85865 1.853 0.679439)
(2.85839 1.853 0.680189)
(2.85828 1.853 0.680602)
(2.85803 1.853 0.681562)
(2.85799 1.853 0.681789)
(2.85779 1.853 0.682954)
(2.85768 1.853 0.684218)
(2.85766 1.853 0.684358)
(2.85766 1.853 0.684832)
)

// edges

664
(
(8 9)
(0 1)
(9 0)
(1 10)
(10 11)
(11 12)
(12 13)
(14 8)
(13 15)
(16 14)
(15 17)
(18 16)
(17 19)
(20 18)
(19 21)
(22 20)
(21 23)
(24 22)
(23 25)
(26 27)
(28 29)
(25 26)
(29 30)
(30 24)
(31 32)
(32 33)
(33 34)
(34 35)
(35 36)
(37 38)
(36 39)
(27 37)
(39 40)
(40 28)
(41 42)
(43 44)
(44 45)
(45 46)
(47 48)
(48 49)
(49 43)
(46 50)
(50 51)
(51 52)
(53 54)
(54 55)
(55 56)
(56 57)
(57 58)
(58 59)
(60 61)
(62 63)
(38 60)
(63 64)
(64 41)
(42 65)
(65 66)
(66 67)
(52 68)
(68 69)
(69 70)
(71 72)
(72 73)
(73 31)
(74 75)
(67 76)
(76 77)
(77 47)
(70 78)
(78 79)
(79 71)
(61 80)
(80 81)
(81 82)
(82 83)
(83 84)
(84 85)
(86 87)
(75 88)
(88 89)
(89 90)
(90 91)
(91 92)
(92 93)
(93 94)
(94 95)
(95 96)
(96 97)
(97 98)
(98 53)
(99 100)
(85 101)
(101 102)
(102 103)
(103 104)
(104 105)
(105 106)
(100 107)
(107 108)
(108 109)
(109 110)
(110 111)
(111 112)
(112 113)
(113 114)
(115 116)
(106 117)
(117 118)
(118 119)
(119 120)
(120 121)
(121 86)
(87 122)
(122 123)
(123 74)
(59 124)
(124 125)
(125 126)
(126 127)
(127 128)
(128 129)
(130 131)
(132 130)
(129 133)
(133 134)
(134 135)
(135 136)
(136 137)
(137 138)
(114 139)
(139 140)
(141 132)
(142 141)
(116 143)
(143 144)
(144 62)
(138 145)
(145 146)
(146 99)
(131 147)
(147 115)
(148 142)
(149 148)
(140 149)
(3 2)
(2 150)
(150 151)
(152 3)
(151 153)
(153 154)
(154 155)
(155 156)
(0 152)
(156 157)
(157 1)
(158 159)
(160 161)
(161 162)
(163 158)
(162 164)
(164 165)
(3 163)
(165 166)
(166 2)
(167 168)
(159 167)
(169 170)
(170 160)
(171 172)
(173 174)
(174 175)
(168 171)
(175 176)
(176 169)
(172 177)
(178 179)
(179 173)
(180 181)
(182 183)
(184 180)
(183 185)
(177 184)
(185 186)
(186 178)
(187 188)
(189 190)
(188 191)
(191 192)
(193 189)
(192 194)
(181 193)
(194 195)
(195 182)
(196 187)
(190 197)
(198 196)
(197 199)
(199 200)
(201 198)
(200 202)
(203 201)
(204 205)
(206 207)
(208 209)
(209 210)
(202 211)
(211 212)
(207 203)
(212 213)
(213 204)
(205 214)
(214 215)
(215 216)
(216 217)
(217 218)
(218 219)
(220 221)
(221 222)
(222 223)
(224 225)
(226 224)
(210 227)
(227 228)
(229 206)
(219 230)
(230 231)
(231 232)
(233 234)
(235 236)
(236 237)
(223 238)
(238 239)
(239 240)
(241 242)
(242 243)
(243 244)
(244 245)
(245 246)
(246 247)
(247 248)
(248 249)
(234 250)
(250 251)
(251 252)
(253 254)
(254 255)
(255 256)
(240 257)
(257 258)
(258 259)
(259 260)
(260 261)
(261 241)
(262 263)
(263 264)
(264 226)
(265 266)
(266 267)
(268 269)
(232 270)
(270 271)
(271 233)
(252 272)
(272 273)
(273 274)
(228 275)
(275 276)
(276 277)
(237 278)
(278 279)
(280 281)
(281 282)
(282 283)
(283 284)
(284 285)
(285 286)
(249 287)
(287 288)
(288 289)
(289 290)
(290 291)
(292 293)
(293 294)
(274 295)
(295 296)
(296 297)
(297 298)
(298 299)
(299 208)
(277 300)
(300 301)
(279 302)
(302 303)
(303 253)
(256 304)
(304 305)
(305 280)
(286 306)
(306 307)
(307 220)
(291 308)
(308 309)
(309 310)
(310 311)
(311 312)
(312 262)
(313 314)
(314 315)
(315 316)
(225 313)
(317 318)
(318 292)
(294 319)
(319 268)
(269 320)
(320 321)
(321 229)
(301 322)
(322 235)
(323 324)
(316 323)
(267 325)
(324 265)
(325 326)
(326 327)
(327 328)
(328 329)
(329 317)
(4 5)
(330 4)
(5 331)
(332 330)
(331 333)
(334 335)
(336 337)
(338 334)
(337 339)
(340 338)
(339 341)
(342 340)
(341 343)
(333 342)
(343 344)
(344 332)
(345 346)
(347 348)
(349 350)
(351 347)
(350 352)
(353 351)
(354 355)
(346 356)
(356 357)
(348 358)
(357 359)
(359 349)
(360 361)
(361 362)
(363 364)
(364 365)
(365 366)
(335 367)
(367 368)
(369 336)
(368 370)
(371 369)
(370 372)
(373 371)
(372 374)
(375 373)
(374 376)
(352 375)
(376 377)
(377 360)
(362 378)
(378 379)
(379 363)
(380 381)
(381 382)
(382 383)
(358 384)
(385 345)
(386 387)
(388 386)
(389 390)
(390 391)
(391 392)
(392 393)
(393 394)
(394 380)
(395 396)
(397 395)
(396 398)
(398 399)
(399 353)
(384 400)
(400 401)
(401 402)
(402 403)
(403 404)
(404 405)
(355 406)
(406 407)
(407 408)
(409 410)
(410 411)
(411 412)
(366 413)
(413 414)
(414 389)
(383 415)
(415 416)
(416 397)
(405 417)
(417 418)
(418 419)
(419 420)
(420 354)
(408 421)
(421 422)
(422 423)
(423 424)
(424 425)
(425 426)
(426 427)
(427 428)
(428 429)
(429 430)
(430 431)
(431 432)
(432 433)
(433 434)
(434 435)
(435 436)
(436 437)
(437 438)
(387 439)
(412 440)
(440 441)
(441 442)
(442 443)
(443 444)
(444 445)
(445 446)
(446 447)
(439 448)
(448 449)
(449 450)
(451 388)
(452 451)
(453 452)
(454 453)
(447 454)
(438 455)
(455 456)
(456 457)
(457 458)
(458 459)
(459 460)
(460 461)
(461 462)
(462 463)
(463 409)
(450 464)
(464 465)
(465 466)
(466 467)
(467 468)
(468 469)
(469 470)
(470 471)
(471 385)
(472 473)
(473 474)
(6 475)
(474 476)
(7 6)
(476 7)
(4 477)
(477 478)
(475 5)
(478 479)
(479 472)
(480 6)
(7 481)
(481 482)
(482 483)
(484 480)
(483 485)
(485 486)
(487 484)
(486 488)
(488 489)
(490 487)
(489 491)
(492 490)
(493 494)
(495 492)
(496 493)
(491 496)
(494 497)
(497 498)
(499 495)
(498 500)
(501 499)
(500 502)
(503 501)
(504 505)
(506 507)
(508 504)
(507 503)
(509 508)
(502 509)
(510 511)
(511 512)
(513 514)
(514 515)
(515 516)
(517 518)
(519 517)
(512 520)
(520 521)
(521 513)
(522 523)
(524 525)
(526 527)
(527 528)
(528 510)
(529 530)
(531 532)
(533 534)
(534 535)
(535 519)
(518 536)
(536 537)
(537 538)
(538 539)
(539 540)
(540 541)
(542 543)
(544 545)
(545 546)
(546 547)
(548 549)
(549 550)
(516 551)
(551 552)
(552 533)
(541 553)
(553 554)
(554 555)
(556 542)
(543 557)
(557 558)
(558 526)
(559 560)
(561 559)
(562 563)
(563 564)
(564 565)
(565 566)
(566 567)
(567 548)
(550 568)
(568 569)
(569 570)
(570 571)
(571 572)
(572 573)
(530 574)
(574 575)
(575 531)
(576 577)
(577 578)
(525 579)
(578 580)
(580 522)
(523 581)
(581 582)
(583 524)
(582 584)
(584 556)
(585 586)
(587 585)
(573 588)
(588 589)
(589 529)
(532 590)
(590 591)
(591 576)
(555 592)
(592 593)
(594 583)
(593 595)
(596 594)
(595 597)
(598 596)
(597 599)
(505 598)
(599 600)
(600 506)
(601 602)
(602 603)
(604 605)
(605 606)
(606 607)
(608 609)
(586 610)
(610 611)
(611 612)
(613 614)
(614 615)
(615 544)
(616 617)
(617 618)
(618 562)
(619 561)
(620 619)
(579 620)
(560 621)
(621 601)
(603 622)
(622 623)
(623 624)
(624 625)
(625 626)
(626 627)
(627 628)
(628 604)
(607 629)
(629 630)
(630 608)
(609 631)
(631 632)
(632 633)
(633 634)
(634 635)
(635 636)
(547 637)
(637 638)
(638 639)
(636 640)
(640 587)
(612 641)
(641 642)
(642 643)
(639 644)
(644 645)
(645 616)
(643 646)
(646 647)
(647 648)
(648 649)
(649 650)
(650 651)
(651 652)
(652 653)
(653 654)
(654 655)
(655 656)
(656 657)
(657 658)
(658 659)
(659 613)
)

// concaveStart mixedStart nonFeatureStart
0 8 8
// internalStart flatStart openStart multipleStart
0 664 664 664
// normals

1308
(
(0 1 0)
(-0.121307 -0.0101316 -0.992563)
(0 1 0)
(-1 -0.000130382 -0)
(-0.121276 -0.0101315 -0.992567)
(0 1 0)
(-0.123557 0.010406 0.992283)
(0 1 0)
(-0.123659 0.00866401 0.992287)
(0 1 0)
(-0.123548 0.00717877 0.992313)
(0 1 0)
(-0.123643 0.00594376 0.992309)
(0 1 0)
(-0.124419 -0.00965657 -0.992183)
(0 1 0)
(-0.123427 0.00494681 0.992341)
(0 1 0)
(-0.124365 -0.00900139 -0.992196)
(0 1 0)
(-0.128821 0.00314256 0.991663)
(0 1 0)
(-0.124363 -0.00814647 -0.992203)
(0 1 0)
(-0.128777 0.00213145 0.991671)
(0 1 0)
(-0.124591 -0.00714103 -0.992183)
(0 1 0)
(-0.128788 0.00213131 0.99167)
(0 1 0)
(-0.128693 -0.00739879 -0.991657)
(0 1 0)
(-0.134008 0.000899894 0.99098)
(0 1 0)
(-0.128664 -0.00649348 -0.991667)
(0 1 0)
(-0.134038 0.000899343 0.990976)
(0 1 0)
(-0.139143 0.000262746 0.990272)
(0 1 -0)
(-0.13255 -0.00474028 -0.991165)
(0 1 0)
(-0.139166 0.00109421 0.990268)
(0 1 0)
(-0.132574 -0.00559649 -0.991157)
(0 1 -0)
(-0.128709 -0.00549161 -0.991667)
(0 1 0)
(-0.0731173 -0.000585422 -0.997323)
(0 1 0)
(-0.134007 -0.00216268 -0.990978)
(0 1 0)
(-0.135876 -0.00229783 -0.990723)
(0 1 0)
(-0.135517 -0.00228904 -0.990772)
(0 1 -0)
(-0.135451 -0.00308328 -0.990779)
(0 1 0)
(-0.144285 -9.83756e-05 0.989536)
(0 1 -0)
(-0.135465 -0.00308358 -0.990777)
(0 1 0)
(-0.144357 -0.000100458 0.989526)
(0 1 0)
(-0.13241 -0.00383117 -0.991188)
(0 1 -0)
(-0.132561 -0.00383416 -0.991167)
(-0 1 0)
(0.533433 0.0153233 -0.845704)
(-0 1 0)
(0.337762 0.0101681 -0.941177)
(0 1 0)
(0.2558 0.0079623 -0.966697)
(0 1 0)
(0.257456 0.00807057 -0.966256)
(-0 1 0)
(0.414992 0.0122116 -0.909743)
(0 1 0)
(0.337369 0.0101046 -0.941318)
(0 1 0)
(0.337382 0.0101705 -0.941313)
(-0 1 0)
(0.25797 0.00806773 -0.966119)
(0 1 0)
(0.177492 0.00591685 -0.984104)
(0 1 0)
(0.17541 0.00591842 -0.984478)
(0 1 -0)
(0.894242 0.0366097 0.446084)
(0 1 0)
(0.928423 0.0374665 0.369632)
(0 1 0)
(0.926357 0.037429 0.374782)
(0 1 -0)
(0.955873 0.0380553 0.291305)
(0 1 0)
(0.956535 0.0381048 0.289116)
(0 1 0)
(0.976409 0.038381 0.21249)
(0 1 -0)
(-0.149478 -0.000319119 0.988765)
(0 1 0)
(0.534944 0.0153729 -0.844748)
(0 1 -0)
(-0.14954 -8.69642e-07 0.988756)
(0 1 0)
(0.534992 0.0153747 -0.844717)
(0 1 0)
(0.534945 0.0153731 -0.844747)
(-0 1 0)
(0.533785 0.0153462 -0.845481)
(0 1 0)
(0.486466 0.0139205 -0.873588)
(0 1 0)
(0.486881 0.0141148 -0.873354)
(-0 1 0)
(0.176204 0.00591941 -0.984336)
(0 1 0)
(0.0925877 0.0037018 -0.995698)
(0 1 0)
(0.0937628 0.0037877 -0.995587)
(-0 1 0)
(0.011092 0.0016042 -0.999937)
(0 1 0)
(-0.0724219 -0.000577256 -0.997374)
(0 1 0)
(-0.0715501 -0.000511302 -0.997437)
(0 1 0)
(0.502432 0.0239999 0.864283)
(-0 1 0)
(0.485939 0.0140915 -0.873879)
(0 1 0)
(0.414458 0.0121358 -0.909988)
(0 1 0)
(0.41478 0.0122139 -0.90984)
(-0 1 0)
(0.0946097 0.00378359 -0.995507)
(0 1 0)
(0.00877848 0.00152411 -0.99996)
(0 1 0)
(0.0107722 0.00162729 -0.999941)
(0 1 0)
(-0.153018 -0.000238064 0.988223)
(0 1 0)
(-0.154279 -0.000491172 0.988027)
(0 1 0)
(-0.154299 -0.000491941 0.988024)
(0 1 -0)
(-0.143656 -7.16596e-05 0.989628)
(0 1 0)
(-0.142136 -1.21106e-05 0.989847)
(0 1 0)
(-0.143173 -4.41363e-05 0.989698)
(0 1 -0)
(0.426471 0.0212749 0.904251)
(0 1 -0)
(0.571474 0.0262999 0.820198)
(0 1 0)
(0.571689 0.0264083 0.820045)
(0 1 0)
(0.637313 0.0285139 0.770078)
(0 1 -0)
(0.636919 0.0286321 0.770399)
(0 1 0)
(0.700237 0.0305659 0.713256)
(0 1 0)
(0.699335 0.0307027 0.714134)
(0 1 -0)
(0.757815 0.0323829 0.651665)
(0 1 0)
(0.756565 0.0325424 0.653109)
(0 1 0)
(0.809847 0.0339667 0.585657)
(0 1 -0)
(0.808482 0.034153 0.58753)
(0 1 0)
(0.852718 0.035229 0.521182)
(0 1 0)
(0.853887 0.0354971 0.519247)
(0 1 0)
(0.933975 0.0335151 -0.355762)
(0 1 -0)
(-0.0611786 0.00309115 0.998122)
(0 1 0)
(-0.0617841 0.0031414 0.998085)
(0 1 0)
(0.0219963 0.00625769 0.999738)
(0 1 -0)
(0.0215697 0.00635053 0.999747)
(0 1 0)
(0.105768 0.00939385 0.994347)
(0 1 0)
(0.105566 0.00953866 0.994367)
(0 1 0)
(0.901665 0.0317623 -0.431268)
(0 1 0)
(0.901454 0.0318068 -0.431705)
(0 1 0)
(0.90131 0.0318215 -0.432005)
(0 1 0)
(0.862642 0.0298241 -0.504935)
(0 1 0)
(0.863332 0.0299224 -0.503748)
(0 1 0)
(0.864064 0.0299867 -0.502489)
(0 1 0)
(0.81954 0.0278366 -0.572346)
(0 1 0)
(0.819041 0.0278489 -0.573058)
(-0 1 0)
(0.535994 0.0154244 -0.844081)
(0 1 -0)
(0.187293 0.0124024 0.982226)
(0 1 0)
(0.189613 0.0126797 0.981777)
(0 1 0)
(0.27087 0.0156699 0.962488)
(0 1 -0)
(0.272539 0.0157003 0.962016)
(0 1 0)
(0.348806 0.0185015 0.937012)
(0 1 0)
(0.351598 0.0186028 0.935966)
(0 1 -0)
(0.426744 0.0213207 0.904121)
(0 1 0)
(0.497244 0.0237508 0.867286)
(0 1 0)
(0.501971 0.02398 0.864552)
(0 1 -0)
(0.975929 0.0384279 0.214677)
(0 1 0)
(0.990734 0.0384338 0.130267)
(0 1 0)
(0.990472 0.0385183 0.132216)
(0 1 -0)
(0.998112 0.0382225 0.0480701)
(0 1 0)
(0.998091 0.0383284 0.048427)
(0 1 0)
(0.998689 0.0377428 -0.0345866)
(0 1 0)
(0.591841 0.017707 -0.80586)
(0.654219 0.0204788 -0.756028)
(0 1 0)
(0.998656 0.0378654 -0.0354015)
(0 1 0)
(0.992546 0.0370153 -0.116111)
(0 1 0)
(0.992483 0.0371584 -0.116606)
(0 1 0)
(0.97969 0.0360266 -0.197254)
(0 1 0)
(0.979688 0.0361997 -0.197235)
(0 1 0)
(0.959786 0.034757 -0.278574)
(0 1 0)
(0.769714 0.0255348 -0.637878)
(0 1 0)
(0.770946 0.0256345 -0.636384)
(0 1 0)
(0.654578 0.0204701 -0.755717)
(0.715045 0.0231411 -0.698695)
(-0 1 0)
(0.535818 0.0154115 -0.844193)
(0 1 0)
(0.535149 0.015382 -0.844618)
(0 1 0)
(0.534931 0.0153721 -0.844756)
(0 1 0)
(0.960299 0.0349955 -0.276768)
(0 1 0)
(0.933641 0.0332694 -0.356661)
(0 1 0)
(0.933968 0.0335171 -0.35578)
(0 1 0)
(0.591496 0.0177828 -0.806111)
(0 1 0)
(0.5355 0.0154038 -0.844395)
(-0 1 0)
(0.71507 0.0231268 -0.698671)
(0 1 0)
(0.715517 0.0230983 -0.698213)
(0.767826 0.0254994 -0.64015)
(-0.992498 0.00115469 0.122258)
(0 -1 0)
(0.0607869 0.0104911 0.998096)
(-0.992512 0.00115547 0.122138)
(0.0607869 0.0104967 0.998096)
(-0.995777 0.00109376 0.0918007)