/*--------------------------------*- C++ -*----------------------------------*\
| =========                 |                                                 |
| \\      /  F ield         | OpenFOAM: The Open Source CFD Toolbox           |
|  \\    /   O peration     | Version:  2206                                  |
|   \\  /    A nd           | Website:  www.openfoam.com                      |
|    \\/     M anipulation  |                                                 |
\*---------------------------------------------------------------------------*/
FoamFile
{
    version     2.0;
    format      ascii;
    arch        "LSB;label=32;scalar=64";
    class       extendedFeatureEdgeMesh;
    location    "constant/extendedFeatureEdgeMesh";
    object      elevator.extendedFeatureEdgeMesh;
}
// * * * * * * * * * * * * * * * * * * * * * * * * * * * * * * * * * * * * * //

// points

159
(
(0.486417 -0.282998 0.265387)
(0.484805 -0.282998 0.262857)
(0.484805 -1.597 0.262857)
(0.486417 -1.597 0.265387)
(0.484805 0.283002 0.262857)
(0.486417 0.283002 0.265387)
(0.486417 1.597 0.265387)
(0.484805 1.597 0.262857)
(0.341796 -0.282998 0.350952)
(0.339057 -0.282998 0.35466)
(0.352613 -0.282998 0.394202)
(0.353081 -0.282998 0.394223)
(0.349382 -0.282998 0.393631)
(0.363512 -0.282998 0.333772)
(0.353935 -0.282998 0.339988)
(0.350524 -0.282998 0.342749)
(0.347063 -0.282998 0.34555)
(0.343707 -0.282998 0.348992)
(0.354955 -0.282998 0.394307)
(0.361299 -0.282998 0.393725)
(0.361348 -0.282998 0.393721)
(0.367731 -0.282998 0.392107)
(0.367891 -0.282998 0.392067)
(0.374614 -0.282998 0.389324)
(0.337829 -0.282998 0.356323)
(0.33603 -0.282998 0.35974)
(0.335214 -0.282998 0.361289)
(0.334134 -0.282998 0.364453)
(0.33362 -0.282998 0.365961)
(0.333041 -0.282998 0.368997)
(0.433508 -0.282998 0.331974)
(0.421004 -0.282998 0.347432)
(0.332939 -0.282998 0.369534)
(0.332857 -0.282998 0.371406)
(0.33278 -0.282998 0.373165)
(0.37623 -0.282998 0.388422)
(0.381714 -0.282998 0.385358)
(0.387222 -0.282998 0.381463)
(0.402412 -0.282998 0.368166)
(0.406191 -0.282998 0.364431)
(0.417799 -0.282998 0.351394)
(0.333011 -0.282998 0.37514)
(0.333174 -0.282998 0.376537)
(0.333813 -0.282998 0.378791)
(0.389356 -0.282998 0.379954)
(0.397505 -0.282998 0.373013)
(0.334166 -0.282998 0.380038)
(0.335203 -0.282998 0.382262)
(0.335598 -0.282998 0.383111)
(0.337177 -0.282998 0.385438)
(0.337642 -0.282998 0.386122)
(0.339646 -0.282998 0.388248)
(0.34257 -0.282998 0.390587)
(0.342854 -0.282998 0.390805)
(0.345837 -0.282998 0.392416)
(0.339967 -0.282998 0.388589)
(0.349274 -0.282998 0.393612)
(0.332768 -1.597 0.371872)
(0.332802 -1.597 0.371404)
(0.35133 -1.597 0.394038)
(0.349395 -1.597 0.393577)
(0.338432 -1.597 0.35539)
(0.339018 -1.597 0.354633)
(0.342437 -1.597 0.350214)
(0.343683 -1.597 0.348971)
(0.336857 -1.597 0.385089)
(0.335178 -1.597 0.38227)
(0.362191 -1.597 0.393566)
(0.361292 -1.597 0.39367)
(0.355958 -1.597 0.394285)
(0.332939 -1.597 0.369534)
(0.333052 -1.597 0.369)
(0.333954 -1.597 0.364751)
(0.334077 -1.597 0.364434)
(0.335795 -1.597 0.360009)
(0.335967 -1.597 0.359708)
(0.363512 -1.597 0.333772)
(0.433508 -1.597 0.331974)
(0.421045 -1.597 0.347465)
(0.382944 -1.597 0.384565)
(0.376251 -1.597 0.38846)
(0.375618 -1.597 0.388828)
(0.354955 -1.597 0.394307)
(0.353086 -1.597 0.394168)
(0.348028 -1.597 0.393251)
(0.345864 -1.597 0.392352)
(0.344667 -1.597 0.391854)
(0.334995 -1.597 0.381962)
(0.333746 -1.597 0.37881)
(0.420059 -1.597 0.348691)
(0.409222 -1.597 0.361184)
(0.402411 -1.597 0.368167)
(0.347549 -1.597 0.345112)
(0.350517 -1.597 0.342742)
(0.387204 -1.597 0.381441)
(0.354249 -1.597 0.339761)
(0.390885 -1.597 0.378741)
(0.399608 -1.597 0.371041)
(0.368706 -1.597 0.391789)
(0.367717 -1.597 0.392059)
(0.342581 -1.597 0.390564)
(0.341784 -1.597 0.390071)
(0.339658 -1.597 0.38823)
(0.339033 -1.597 0.387688)
(0.337157 -1.597 0.385448)
(0.332962 -1.597 0.375256)
(0.332955 -1.597 0.375147)
(0.363512 0.283002 0.333772)
(0.433508 0.283002 0.331974)
(0.376271 0.283002 0.388495)
(0.367734 0.283002 0.392118)
(0.345837 0.283002 0.392416)
(0.342553 0.283002 0.390608)
(0.349381 0.283002 0.393639)
(0.335947 0.283002 0.359696)
(0.338972 0.283002 0.354597)
(0.361299 0.283002 0.393729)
(0.354955 0.283002 0.394307)
(0.332782 0.283002 0.371403)
(0.332939 0.283002 0.369534)
(0.35308 0.283002 0.394243)
(0.332947 0.283002 0.375148)
(0.333746 0.283002 0.37881)
(0.335155 0.283002 0.382284)
(0.334054 0.283002 0.364425)
(0.421061 0.283002 0.347478)
(0.402481 0.283002 0.368236)
(0.350448 0.283002 0.342655)
(0.387274 0.283002 0.381537)
(0.343627 0.283002 0.348914)
(0.339624 0.283002 0.38827)
(0.337133 0.283002 0.385468)
(0.333013 0.283002 0.368992)
(0.433508 1.597 0.331974)
(0.363512 1.597 0.333772)
(0.421061 1.597 0.347478)
(0.332939 1.597 0.369534)
(0.332782 1.597 0.371403)
(0.354955 1.597 0.394307)
(0.361299 1.597 0.393729)
(0.367734 1.597 0.392118)
(0.376271 1.597 0.388495)
(0.387274 1.597 0.381537)
(0.402481 1.597 0.368236)
(0.350448 1.597 0.342655)
(0.332947 1.597 0.375148)
(0.333746 1.597 0.37881)
(0.335155 1.597 0.382284)
(0.339624 1.597 0.38827)
(0.342553 1.597 0.390608)
(0.345837 1.597 0.392416)
(0.343627 1.597 0.348914)
(0.338972 1.597 0.354597)
(0.335947 1.597 0.359696)
(0.349381 1.597 0.393639)
(0.35308 1.597 0.394243)
(0.334054 1.597 0.364425)
(0.333013 1.597 0.368992)
(0.337133 1.597 0.385468)
)

// edges

163
(
(8 9)
(10 11)
(12 10)
(13 14)
(14 15)
(15 16)
(16 17)
(17 8)
(11 18)
(18 19)
(19 20)
(20 21)
(21 22)
(22 23)
(9 24)
(24 25)
(25 26)
(26 27)
(27 28)
(28 29)
(30 0)
(0 1)
(1 13)
(31 30)
(29 32)
(32 33)
(33 34)
(23 35)
(35 36)
(36 37)
(38 39)
(39 40)
(40 31)
(34 41)
(41 42)
(42 43)
(37 44)
(44 45)
(45 38)
(43 46)
(46 47)
(47 48)
(48 49)
(49 50)
(50 51)
(52 53)
(53 54)
(51 55)
(55 52)
(56 12)
(54 56)
(57 58)
(59 60)
(61 62)
(62 63)
(63 64)
(65 66)
(67 68)
(68 69)
(70 71)
(71 72)
(72 73)
(73 74)
(74 75)
(75 61)
(2 3)
(76 2)
(3 77)
(77 78)
(58 70)
(79 80)
(80 81)
(69 82)
(82 83)
(83 59)
(60 84)
(84 85)
(85 86)
(87 88)
(66 87)
(78 89)
(89 90)
(90 91)
(64 92)
(92 93)
(94 79)
(93 95)
(96 94)
(95 76)
(97 96)
(91 97)
(81 98)
(98 99)
(99 67)
(86 100)
(100 101)
(101 102)
(102 103)
(103 104)
(104 65)
(88 105)
(105 106)
(106 57)
(3 0)
(2 1)
(4 5)
(107 4)
(5 108)
(109 110)
(111 112)
(113 111)
(114 115)
(110 116)
(116 117)
(118 119)
(117 120)
(120 113)
(121 118)
(122 121)
(123 122)
(124 114)
(108 125)
(125 126)
(127 107)
(126 128)
(129 127)
(115 129)
(112 130)
(130 131)
(131 123)
(128 109)
(119 132)
(132 124)
(133 6)
(6 7)
(7 134)
(135 133)
(136 137)
(138 139)
(139 140)
(140 141)
(141 142)
(143 135)
(134 144)
(142 143)
(145 146)
(146 147)
(148 149)
(149 150)
(144 151)
(151 152)
(152 153)
(150 154)
(154 155)
(155 138)
(153 156)
(156 157)
(157 136)
(137 145)
(147 158)
(158 148)
(5 6)
(4 7)
)

// concaveStart mixedStart nonFeatureStart
8 8 8
// internalStart flatStart openStart multipleStart
163 163 163 163
// normals

310
(
(0 1 -0)
(-0.804351 -5.86733e-05 -0.594154)
(-0 1 0)
(-0.0448507 -8.08936e-05 0.998994)
(0 1 0)
(-0.174024 -4.21911e-05 0.984741)
(0 1 0)
(-0.54443 -0 -0.838806)
(0 1 0)
(-0.62916 -1.60653e-05 -0.777276)
(0 1 0)
(-0.629095 7.49616e-06 -0.777329)
(0 1 0)
(-0.715993 -3.21069e-05 -0.698108)
(0 1 0)
(-0.716005 2.42193e-05 -0.698096)
(-0 1 0)
(-0.0447699 0 0.998997)
(0 1 0)
(0.0913531 0 0.995819)
(0 1 0)
(0.0812391 -4.2163e-05 0.996695)
(0 1 0)
(0.245144 4.29083e-05 0.969487)
(0 1 0)
(0.242663 -3.80331e-05 0.970111)
(0 1 0)
(0.377767 -5.56565e-05 0.925901)
(0 1 -0)
(-0.804446 3.60896e-05 -0.594025)
(0 1 0)
(-0.884857 -7.52972e-05 -0.465863)
(0 1 0)
(-0.884741 5.37632e-05 -0.466082)
(0 1 -0)
(-0.946387 -0.000103783 -0.323034)
(0 1 0)
(-0.946527 4.57291e-05 -0.322624)
(0 1 0)
(-0.982296 -0.00012393 -0.187334)
(0 1 0)
(0.782933 0 0.622106)
(0.843359 0 -0.53735)
(0 1 0)
(-0.504725 -0 -0.86328)
(0 1 0)
(0.777481 0 0.628907)
(0 1 -0)
(-0.982429 0 -0.186639)
(0 1 0)
(-0.999042 4.18948e-05 -0.043754)
(0 1 0)
(-0.999043 4.18948e-05 -0.0437376)
(0 1 0)
(0.487384 -0.000740737 0.873188)
(0 1 0)
(0.487752 3.30438e-05 0.872982)
(0 1 0)
(0.577377 4.7716e-05 0.816478)
(0 1 0)
(0.702955 2.23277e-08 0.711234)
(0 1 0)
(0.746853 -0.000257741 0.66499)
(0 1 0)
(0.777469 -0.000389049 0.628921)
(0 1 0)
(-0.993229 -0.000172314 0.116169)
(0 1 0)
(-0.993263 4.29474e-05 0.115886)
(0 1 0)
(-0.962084 -0.000110693 0.272755)
(0 1 0)
(0.577355 -2.15759e-05 0.816493)
(0 1 0)
(0.648428 5.17595e-05 0.761276)
(0 1 0)
(0.702742 5.70062e-05 0.711445)
(0 1 0)
(-0.962194 5.30153e-05 0.272363)
(0 1 0)
(-0.906318 4.69793e-05 0.422596)
(0 1 0)
(-0.906675 1.98268e-05 0.421829)
(0 1 0)
(-0.827478 5.23996e-05 0.561498)
(0 1 0)
(-0.826988 1.68702e-05 0.562219)
(0 1 0)
(-0.727679 4.71583e-05 0.685918)
(0 1 0)
(-0.608926 -1.89851e-05 0.793227)
(-0.475188 4.67801e-05 0.879884)
(0 1 0)
(-0.728135 -1.60287e-05 0.685434)
(0 1 0)
(-0.608888 5.27181e-05 0.793256)
(0 1 0)
(-0.173382 -0.000106159 0.984855)
(0 1 0)
(-0.328647 -5.27436e-05 0.944453)
(0 -1 0)
(-0.997371 0.000364678 -0.0724656)
(0 -1 0)
(-0.231747 0.000104865 0.972776)
(0 -1 0)
(-0.790773 7.17202e-05 -0.612109)
(0 -1 0)
(-0.79091 3.60556e-05 -0.611933)
(0 -1 0)
(-0.706251 5.30998e-05 -0.707961)
(0 -1 -0)
(-0.859155 -5.28912e-05 0.511715)
(-0 -1 0)
(0.114898 -4.34686e-05 0.993377)
(0 -1 0)
(0.11454 -4.22033e-05 0.993419)
(0 -1 0)
(-0.978331 -8.65739e-06 -0.207045)
(0 -1 0)
(-0.978201 -8.65769e-06 -0.207658)
(0 -1 0)
(-0.932289 0.000521053 -0.361714)
(0 -1 0)
(-0.932207 4.56755e-05 -0.361926)
(0 -1 0)
(-0.868222 9.9438e-05 -0.496176)
(0 -1 0)
(-0.868453 5.37048e-05 -0.495772)
(0 -1 0)
(0.843359 0 -0.53735)
(-0.504725 -0 -0.86328)
(0 -1 0)
(0.782933 0 0.622106)
(0 -1 0)
(0.779144 4.00686e-05 0.626845)
(0 -1 0)
(-0.997327 -0 -0.0730666)
(0 -1 0)
(0.502982 -5.07816e-05 0.864297)
(0 -1 0)
(0.502595 3.30365e-05 0.864522)
(-0 -1 0)
(0.0219225 0.000336958 0.99976)
(0 -1 0)
(-0.0741657 -4.20357e-05 0.997246)
(0 -1 0)
(-0.0738293 -4.20355e-05 0.997271)
(0 -1 0)
(-0.231978 -4.22701e-05 0.972721)
(0 -1 0)
(-0.38364 0.000110079 0.923483)
(0 -1 0)
(-0.384137 -5.28527e-05 0.923276)
(0 -1 0)
(-0.929671 -4.71235e-05 0.368391)
(-0.859723 1.94759e-05 0.51076)
(-0 -1 0)
(0.779245 4.00686e-05 0.626719)
(0 -1 0)
(0.755398 8.45708e-05 0.655266)
(0 -1 0)
(0.715869 0.000529464 0.698234)
(0 -1 0)
(-0.706468 2.41993e-05 -0.707745)
(0 -1 0)
(-0.623987 2.9698e-05 -0.781435)
(0 -1 -0)
(0.591363 -2.1599e-05 0.806405)
(0 -1 0)
(-0.624109 7.49095e-06 -0.781337)
(0 -1 -0)
(0.591449 -5.61452e-05 0.806343)
(0 -1 0)
(-0.542949 1.53317e-05 -0.839766)
(0 -1 -0)
(0.661778 -6.59666e-05 0.7497)
(0 -1 -0)
(0.715889 2.60654e-09 0.698214)
(-0 -1 0)
(0.393771 0.000100617 0.919208)
(0 -1 0)
(0.263376 0.000963819 0.964693)
(0 -1 0)
(0.263105 -3.80558e-05 0.964767)
(0 -1 0)
(-0.525963 -4.67275e-05 0.850508)
(0 -1 0)
(-0.526051 -1.92935e-05 0.850453)
(0 -1 0)
(-0.654619 -5.25856e-05 0.755959)
(0 -1 0)
(-0.65516 -1.6323e-05 0.755491)
(0 -1 0)
(-0.766649 -4.63568e-05 0.642067)
(0 -1 0)
(-0.767322 1.65645e-05 0.641261)
(0 -1 -0)
(-0.976523 5.29234e-05 0.215413)
(0 -1 0)
(-0.997942 9.84779e-05 0.0641281)
(0 -1 0)
(-0.998374 4.28514e-05 0.0570092)
(0 -1 0)
(0.843359 0 -0.53735)
(-0.504725 -0 -0.86328)
(0 -1 0)
(0.782933 0 0.622106)
(-0 -1 0)
(0.390663 0 0.920534)
(0 -1 0)
(-0.482284 0 0.876015)
(0 -1 -0)
(-0.326212 0 0.945297)
(0 -1 0)
(-0.860042 0 -0.510223)
(-0 -1 0)
(0.242855 0 0.970063)
(0 -1 0)
(0.0907315 0 0.995875)
(0 -1 0)
(-0.996491 -0 -0.0837056)
(0 -1 0)
(-0.0341061 0 0.999418)
(0 -1 0)
(-0.161154 0 0.986929)
(0 -1 0)
(-0.999031 0 0.0440123)
(0 -1 0)
(-0.977015 0 0.213172)
(-0.926679 0 0.375853)
(0 -1 0)
(-0.928381 0 -0.37163)
(0 -1 0)
(0.779793 0 0.626037)
(0 -1 0)
(0.745115 0 0.666936)
(0 -1 0)
(-0.562288 0 -0.826942)
(0 -1 0)
(0.658361 0 0.752703)
(0 -1 0)
(-0.676101 0 -0.736809)
(0 -1 0)
(-0.773605 0 -0.633668)
(0 -1 0)
(-0.623852 0 0.781543)
(0 -1 0)
(-0.747364 0 0.664415)
(0 -1 0)
(-0.849438 0 0.527689)
(0 -1 -0)
(0.534474 0 0.845185)
(0 -1 0)
(-0.990808 0 -0.135279)
(0 -1 0)
(-0.974992 0 -0.222238)
(0 1 0)
(0.782933 0 0.622106)
(0.843359 0 -0.53735)
(0 1 0)
(-0.504725 -0 -0.86328)
(0 1 0)
(0.779793 -0 0.626037)
(-0 1 0)
(-0.996491 0 -0.0837056)
(0 1 0)
(0.0907315 -0 0.995875)
(0 1 0)
(0.242855 -0 0.970063)
(0 1 0)
(0.390663 -0 0.920534)
(0 1 0)
(0.534474 -0 0.845185)
(0 1 0)
(0.745115 -0 0.666936)
(0 1 0)
(-0.562288 0 -0.826942)
(0 1 0)
(0.658361 -0 0.752703)
(0 1 0)
(-0.977015 0 0.213172)
(-0.926679 0 0.375853)
(-0 1 0)
(-0.623852 0 0.781543)
(0 1 0)
(-0.482284 0 0.876015)
(0 1 -0)
(-0.676101 0 -0.736809)
(0 1 0)
(-0.773605 0 -0.633668)
(0 1 0)
(-0.860042 0 -0.510223)
(-0 1 0)
(-0.326212 0 0.945297)
(0 1 0)
(-0.161154 0 0.986929)
(0 1 0)
(-0.0341061 0 0.999418)
(0 1 -0)
(-0.928381 0 -0.37163)
(0 1 0)
(-0.974992 0 -0.222238)
(0 1 0)
(-0.990808 0 -0.135279)
(-0 1 0)
(-0.999031 0 0.0440123)
(0 1 0)
(-0.849438 0 0.527689)
(0 1 0)
(-0.747364 0 0.664415)
)

// normal volume types

310
(
0
0
0
0
0
0
0
0
0
0
0
0
0
0
0
0
0
0
0
0
0
0
0
0
0
0
0
0
0
0
0
0
0
0
0
0
0
0
0
0
0
0
0
0
0
0
0
0
0
0
0
0
0
0
0
0
0
0
0
0
0
0
0
0
0
0
0
0
0
0
0
0
0
0
0
0
0
0
0
0
0
0
0
0
0
0
0
0
0
0
0
0
0
0
0
0
0
0
0
0
0
0
0
0
0
0
0
0
0
0
0
0
0
0
0
0
0
0
0
0
0
0
0
0
0
0
0
0
0
0
0
0
0
0
0
0
0
0
0
0
0
0
0
0
0
0
0
0
0
0
0
0
0
0
0
0
0
0
0
0
0
0
0
0
0
0
0
0
0
0
0
0
0
0
0
0
0
0
0
0
0
0
0
0
0
0
0
0
0
0
0
0
0
0
0
0
0
0
0
0
0
0
0
0
0
0
0
0
0
0
0
0
0
0
0
0
0
0
0
0
0
0
0
0
0
0
0
0
0
0
0
0
0
0
0
0
0
0
0
0
0
0
0
0
0
0
0
0
0
0
0
0
0
0
0
0
0
0
0
0
0
0
0
0
0
0
0
0
0
0
0
0
0
0
0
0
0
0
0
0
0
0
0
0
0
0
0
0
0
0
0
0
0
0
0
0
0
0
0
0
0
0
0
0
0
0
0
0
0
0
)

// normalDirections

163
(
2(1 -1)
2(1 -1)
2(1 -1)
2(1 -1)
2(1 -1)
2(1 -1)
2(1 -1)
2(1 -1)
2(1 -1)
2(1 -1)
2(1 -1)
2(1 -1)
2(1 -1)
2(1 -1)
2(1 -1)
2(1 -1)
2(1 -1)
2(1 -1)
2(1 -1)
2(1 -1)
2(1 -1)
2(1 -1)
2(1 -1)
2(1 -1)
2(1 -1)
2(1 -1)
2(1 -1)
2(1 -1)
2(1 -1)
2(1 -1)
2(1 -1)
2(1 -1)
2(1 -1)
2(1 -1)
2(1 -1)
2(1 -1)
2(1 -1)
2(1 -1)
2(1 -1)
2(1 -1)
2(1 -1)
2(1 -1)
2(1 -1)
2(1 -1)
2(1 -1)
2(1 -1)
2(1 -1)
2(1 -1)
2(1 -1)
2(1 -1)
2(1 -1)
2(1 -1)
2(1 -1)
2(1 -1)
2(1 -1)
2(1 -1)
2(1 -1)
2(1 -1)
2(1 -1)
2(1 -1)
2(1 -1)
2(1 -1)
2(1 -1)
2(1 -1)
2(1 -1)
2(1 -1)
2(1 -1)
2(1 -1)
2(1 -1)
2(1 -1)
2(1 -1)
2(1 -1)
2(1 -1)
2(1 -1)
2(1 -1)
2(1 -1)
2(1 -1)
2(1 -1)
2(1 -1)
2(1 -1)
2(1 -1)
2(1 -1)
2(1 -1)
2(1 -1)
2(1 -1)
2(1 -1)
2(1 -1)
2(1 -1)
2(1 -1)
2(1 -1)
2(1 -1)
2(1 -1)
2(1 -1)
2(1 -1)
2(1 -1)
2(1 -1)
2(1 -1)
2(1 -1)
2(1 -1)
2(1 -1)
2(1 -1)
2(1 -1)
2(1 -1)
2(1 -1)
2(1 -1)
2(1 -1)
2(1 -1)
2(1 -1)
2(1 -1)
2(1 -1)
2(1 -1)
2(1 -1)
2(1 -1)
2(1 -1)
2(1 -1)
2(1 -1)
2(1 -1)
2(1 -1)
2(1 -1)
2(1 -1)
2(1 -1)
2(1 -1)
2(1 -1)
2(1 -1)
2(1 -1)
2(1 -1)
2(1 -1)
2(1 -1)
2(1 -1)
2(1 -1)
2(1 -1)
2(1 -1)
2(1 -1)
2(1 -1)
2(1 -1)
2(1 -1)
2(1 -1)
2(1 -1)
2(1 -1)
2(1 -1)
2(1 -1)
2(1 -1)
2(1 -1)
2(1 -1)
2(1 -1)
2(1 -1)
2(1 -1)
2(1 -1)
2(1 -1)
2(1 -1)
2(1 -1)
2(1 -1)
2(1 -1)
2(1 -1)
2(1 -1)
2(1 -1)
2(1 -1)
2(1 -1)
2(1 -1)
2(1 -1)
2(1 -1)
2(1 -1)
2(1 -1)
)

// edgeNormals

163
(
2(0 1)
2(2 3)
2(4 5)
2(6 7)
2(8 9)
2(10 11)
2(12 13)
2(14 15)
2(16 17)
2(18 19)
2(20 21)
2(22 23)
2(24 25)
2(26 27)
2(28 29)
2(30 31)
2(32 33)
2(34 35)
2(36 37)
2(38 39)
2(40 41)
2(40 42)
2(43 44)
2(45 46)
2(47 48)
2(49 50)
2(51 52)
2(53 54)
2(55 56)
2(57 58)
2(59 60)
2(61 62)
2(63 64)
2(65 66)
2(67 68)
2(69 70)
2(71 72)
2(73 74)
2(75 76)
2(77 78)
2(79 80)
2(81 82)
2(83 84)
2(85 86)
2(87 88)
2(89 90)
2(89 91)
2(92 93)
2(94 95)
2(96 97)
2(98 99)
2(100 101)
2(102 103)
2(104 105)
2(106 107)
2(108 109)
2(110 111)
2(112 113)
2(114 115)
2(116 117)
2(118 119)
2(120 121)
2(122 123)
2(124 125)
2(126 127)
2(128 129)
2(128 130)
2(131 132)
2(133 134)
2(135 136)
2(137 138)
2(139 140)
2(141 142)
2(143 144)
2(145 146)
2(147 148)
2(149 150)
2(151 152)
2(153 154)
2(153 155)
2(156 157)
2(158 159)
2(160 161)
2(162 163)
2(164 165)
2(166 167)
2(168 169)
2(170 171)
2(172 173)
2(174 175)
2(176 177)
2(178 179)
2(180 181)
2(182 183)
2(184 185)
2(186 187)
2(188 189)
2(190 191)
2(192 193)
2(194 195)
2(196 197)
2(198 199)
2(200 201)
2(132 42)
2(129 44)
2(202 203)
2(202 204)
2(205 206)
2(207 208)
2(209 210)
2(211 212)
2(213 214)
2(215 216)
2(217 218)
2(219 220)
2(221 222)
2(223 224)
2(225 226)
2(227 228)
2(227 229)
2(230 231)
2(232 233)
2(234 235)
2(236 237)
2(238 239)
2(240 241)
2(242 243)
2(244 245)
2(246 247)
2(248 249)
2(250 251)
2(252 253)
2(254 255)
2(256 257)
2(256 258)
2(259 260)
2(261 262)
2(263 264)
2(265 266)
2(267 268)
2(269 270)
2(271 272)
2(273 274)
2(275 276)
2(277 278)
2(279 280)
2(279 281)
2(282 283)
2(284 285)
2(286 287)
2(288 289)
2(290 291)
2(292 293)
2(294 295)
2(296 297)
2(298 299)
2(300 301)
2(302 303)
2(304 305)
2(306 307)
2(308 309)
2(206 258)
2(203 260)
)

// featurePointNormals

8
(
3(40 41 42)
3(40 42 44)
3(128 129 130)
3(128 129 132)
3(202 203 204)
3(202 203 206)
3(256 257 258)
3(256 258 260)
)

// featurePointEdges

8
(
3(20 103 21)
3(22 104 21)
3(65 104 66)
3(67 103 65)
3(105 162 106)
3(107 161 105)
3(133 161 134)
3(135 162 134)
)

// regionEdges
0()


// ************************************************************************* //
