/*--------------------------------*- C++ -*----------------------------------*\
| =========                 |                                                 |
| \\      /  F ield         | OpenFOAM: The Open Source CFD Toolbox           |
|  \\    /   O peration     | Version:  2206                                  |
|   \\  /    A nd           | Website:  www.openfoam.com                      |
|    \\/     M anipulation  |                                                 |
\*---------------------------------------------------------------------------*/
FoamFile
{
    version     2.0;
    format      ascii;
    arch        "LSB;label=32;scalar=64";
    class       extendedFeatureEdgeMesh;
    location    "constant/extendedFeatureEdgeMesh";
    object      fuselage.extendedFeatureEdgeMesh;
}
// * * * * * * * * * * * * * * * * * * * * * * * * * * * * * * * * * * * * * //

// points

9406
(
(3.26821 -3.92401 0.697053)
(2.70625 -3.97916 0.638759)
(3.20011 -0.424 0.701494)
(3.19987 -0.424 0.698508)
(1.75583 -0.424 0.700888)
(1.75848 -0.424 0.706839)
(1.75516 -0.424 0.697004)
(1.7571 -0.424 0.704229)
(1.76184 -0.424 0.711326)
(1.76995 -0.424 0.67595)
(1.75621 -0.424 0.690316)
(1.75577 -0.424 0.691595)
(3.19982 -1.85 0.698514)
(3.20018 -1.85 0.701486)
(3.2 -3.275 0.716484)
(3.2 -3.275 0.713484)
(3.2 -3.91277 0.68987)
(3.22857 -3.91728 0.692878)
(3.55968 -3.98256 0.500783)
(3.55978 -3.97956 0.500783)
(3.76566 -3.98975 1.635)
(3.76577 -3.98676 1.635)
(2.90328 3.91136 0.811712)
(3.26821 3.92401 0.697053)
(2.70625 3.97916 0.638759)
(2.90416 3.91121 0.81171)
(2.90021 3.91198 0.81169)
(2.90079 3.91185 0.811695)
(3.19987 0.424 0.698508)
(3.20011 0.424 0.701494)
(3.06129 0.424 0.693064)
(1.75922 0.424 0.707974)
(1.75843 0.424 0.70677)
(1.75703 0.424 0.704163)
(1.75516 0.424 0.697067)
(1.76089 0.424 0.710227)
(1.76004 0.424 0.709152)
(1.75988 0.424 0.684152)
(1.76987 0.424 0.67599)
(1.75712 0.424 0.688346)
(1.75622 0.424 0.690305)
(1.76343 0.424 0.680483)
(3.20018 1.85 0.701486)
(3.19982 1.85 0.698514)
(3.2 3.275 0.713484)
(3.2 3.275 0.716484)
(3.55968 3.98256 0.500783)
(3.55978 3.97956 0.500783)
(3.76577 3.98676 1.635)
(3.76566 3.98975 1.635)
(2.75527 3.90609 0.643179)
(0.384999 1.47575 0.340031)
(0.385003 1.47575 0.341164)
(0.509735 1.6 0.339341)
(0.509866 1.6 0.342339)
(0.509866 0.28 0.342339)
(0.509735 0.28 0.339341)
(0.509735 -0.28 0.339341)
(0.509866 -0.28 0.342339)
(0.146976 0.02403 0.127679)
(0.073176 0.02403 0.127679)
(0.146976 -0.02403 0.127679)
(0.073176 -0.02403 0.127679)
(0.60964 0.267051 0.334979)
(0.60977 0.267051 0.337977)
(2.58619 -0.299611 0.812245)
(2.64415 -0.408665 0.795344)
(2.70203 -0.299284 0.79544)
(2.57782 -0.299249 0.812665)
(2.57929 -0.299272 0.812639)
(2.58439 0.408773 0.802527)
(2.70982 0.299753 0.794598)
(2.57929 0.299272 0.812639)
(2.57782 0.299249 0.812665)
(2.13261 0.316135 0.571085)
(0.60977 -0.267051 0.337977)
(0.60964 -0.267051 0.334979)
(0.385003 -1.47575 0.341164)
(0.384999 -1.47575 0.340031)
(0.509866 -1.6 0.342339)
(0.509735 -1.6 0.339341)
(0.298302 -1.77216 0.349914)
(0.300576 -1.77297 0.349808)
(2.43595 -0.130704 0.495068)
(2.43595 0.130704 0.495068)
(2.90065 -3.91191 0.811679)
(2.89832 -3.91242 0.811637)
(3.07163 -3.89844 0.676381)
(2.93781 3.89109 0.662404)
(0.26 1.47575 0.341607)
(0.26 1.47575 0.40143)
(0.26 1.6 0.341607)
(0.26 1.6 0.40143)
(0.212374 0.030925 -0.001726)
(0.212374 -0.030925 -0.001726)
(0.23553 -0.030925 0.076432)
(0.23553 0.030925 0.076432)
(2.13036 -0.301927 0.586512)
(2.1303 -0.302141 0.586674)
(2.13027 -0.302293 0.58679)
(2.14127 -0.414483 0.618211)
(2.64476 -0.299149 0.80429)
(2.64264 -0.299506 0.804716)
(2.64107 -0.299404 0.804863)
(2.70902 -0.299697 0.794695)
(2.14182 0.415446 0.618209)
(2.14161 0.415127 0.618211)
(2.14151 0.414956 0.618212)
(2.14144 0.414849 0.618212)
(2.14127 0.414483 0.618211)
(2.14119 0.414231 0.618208)
(2.1411 0.413918 0.618203)
(2.13036 0.301927 0.586512)
(2.64265 0.408771 0.795433)
(2.64107 0.299404 0.804863)
(2.64264 0.299506 0.804716)
(2.69853 0.409159 0.786798)
(2.58318 0.299421 0.81247)
(0.26 -1.47575 0.40143)
(0.26 -1.47575 0.341607)
(0.26 -1.6 0.341607)
(0.26 -1.6 0.40143)
(3.26291 -3.92453 0.696503)
(2.70975 -3.97882 0.639123)
(2.90715 -3.91066 0.811724)
(2.90826 -3.91044 0.811735)
(2.90602 -3.9109 0.811703)
(2.90504 -3.91104 0.811721)
(2.90591 -3.91087 0.811726)
(2.90418 -3.9112 0.811718)
(2.90474 -3.91108 0.811721)
(2.90328 -3.91135 0.811715)
(2.90342 -3.91133 0.811717)
(2.90445 -3.91114 0.81172)
(2.90364 -3.91134 0.8117)
(2.90386 -3.91124 0.811717)
(2.90303 -3.91144 0.811705)
(2.90283 -3.91143 0.811713)
(2.90371 -3.91127 0.811717)
(2.90313 -3.91138 0.811714)
(2.90271 -3.91148 0.811711)
(2.90245 -3.91156 0.811697)
(2.90254 -3.91149 0.811711)
(2.90152 -3.91171 0.811694)
(2.90226 -3.91156 0.81171)
(2.90181 -3.91165 0.8117)
(2.90212 -3.9116 0.811706)
(2.90127 -3.91179 0.811688)
(2.90196 -3.91162 0.811705)
(2.90094 -3.91184 0.811684)
(2.9008 -3.91187 0.811681)
(2.90036 -3.91197 0.811673)
(2.90007 -3.91203 0.811668)
(2.89978 -3.9121 0.811663)
(2.8989 -3.91229 0.811647)
(2.89861 -3.91236 0.811642)
(2.90051 -3.91194 0.811676)
(2.89774 -3.91255 0.811626)
(2.89657 -3.91281 0.811605)
(2.89541 -3.91307 0.811585)
(1.76089 -0.424 0.710228)
(1.75715 -0.424 0.68829)
(1.76003 -0.424 0.709146)
(1.75516 -0.424 0.694912)
(1.75513 -0.424 0.695253)
(1.75678 -0.424 0.688992)
(2.85707 -1.85 0.665177)
(2.85707 -1.85 0.665622)
(2.93801 -1.85 0.747962)
(2.93801 -1.85 0.748409)
(2.97503 -3.275 0.745348)
(2.97503 -3.275 0.745802)
(2.91259 -3.275 0.673454)
(2.91259 -3.275 0.673014)
(2.90228 -3.90845 0.797022)
(3.2 -3.86561 0.731681)
(2.99167 -3.89272 0.667961)
(2.88678 -3.89155 0.657097)
(2.96859 -3.89175 0.665614)
(3.00079 -3.89314 0.668977)
(3.01846 -3.89424 0.67078)
(3.04511 -3.89618 0.673587)
(3.06448 -3.89773 0.675645)
(3.03216 -3.89512 0.672259)
(3.50061 -3.9775 0.721732)
(3.50051 -3.98049 0.721732)
(2.73844 -3.98666 0.641706)
(2.75139 -3.98915 0.643076)
(3.02744 -3.89478 0.671725)
(3.06271 -3.89757 0.675441)
(2.89905 3.91222 0.811679)
(2.8995 3.91214 0.811681)
(2.89889 3.91225 0.811678)
(2.90292 3.91142 0.811713)
(2.90269 3.91147 0.811712)
(2.90245 3.91156 0.811697)
(2.90364 3.91136 0.81169)
(3.26285 3.92452 0.696563)
(2.70975 3.97882 0.639123)
(2.90539 3.91105 0.811689)
(2.90592 3.91091 0.811706)
(2.90303 3.91144 0.811705)
(2.90372 3.91128 0.811711)
(2.90401 3.91123 0.81171)
(2.90445 3.91116 0.811709)
(2.90254 3.91149 0.811711)
(2.90225 3.91155 0.811709)
(2.90184 3.91166 0.8117)
(2.90211 3.91158 0.811707)
(2.90196 3.91161 0.811708)
(2.90152 3.9117 0.811702)
(2.90094 3.91182 0.811696)
(2.90108 3.91179 0.811698)
(2.90167 3.91167 0.811705)
(2.90125 3.91178 0.811697)
(2.90065 3.91188 0.811694)
(2.90035 3.91195 0.811691)
(2.9005 3.91192 0.811692)
(2.90138 3.91173 0.811702)
(2.89992 3.91204 0.811687)
(2.90011 3.91203 0.811676)
(2.89977 3.91207 0.811686)
(2.89834 3.91239 0.811665)
(2.89773 3.91249 0.811667)
(2.89919 3.91219 0.81168)
(1.75514 0.424 0.695193)
(1.75516 0.424 0.694834)
(2.85707 1.85 0.665177)
(2.85707 1.85 0.665622)
(2.93801 1.85 0.747962)
(2.93801 1.85 0.748409)
(2.97503 3.275 0.745348)
(2.97503 3.275 0.745802)
(2.91259 3.275 0.673454)
(2.91259 3.275 0.673014)
(2.90228 3.90845 0.797022)
(3.2 3.85672 0.730808)
(3.2 3.85623 0.730782)
(2.99167 3.89276 0.667961)
(3.0451 3.89621 0.673587)
(2.90931 3.89111 0.659438)
(2.9404 3.8911 0.662674)
(2.88678 3.89155 0.657097)
(2.85455 3.89307 0.653757)
(2.83274 3.89473 0.651503)
(2.79209 3.89947 0.647323)
(2.76088 3.90504 0.64414)
(3.50051 3.98049 0.721732)
(3.50061 3.9775 0.721732)
(2.78084 3.90124 0.645847)
(2.8993 3.89131 0.658253)
(2.92575 3.89113 0.661031)
(2.97866 3.8922 0.666592)
(3.03713 3.89548 0.672747)
(0.266393 1.47575 0.341584)
(0.385003 1.6 0.341164)
(0.354721 1.6 0.398508)
(0.384999 1.6 0.340031)
(0.355 1.6 0.399468)
(0.130215 1.62938 0.356673)
(0.429196 1.8082 0.343793)
(0.29602 1.77131 0.350117)
(0.294877 1.77087 0.35023)
(0.441937 1.81146 0.343042)
(0.460716 1.81627 0.341991)
(0.142053 1.64893 0.356358)
(0.162548 1.6767 0.355702)
(0.183084 1.6992 0.355294)
(0.177642 1.69366 0.355145)
(0.186401 1.70247 0.354804)
(0.206356 1.72015 0.354093)
(0.196783 1.71203 0.354512)
(0.216183 1.72783 0.353664)
(0.226179 1.73503 0.353227)
(0.354721 0.28 0.398508)
(0.354999 0.28 0.399466)
(0.355 -0.28 0.399467)
(0.354721 -0.28 0.398508)
(0.058081 -0.02403 0.052879)
(0.058081 0.02403 0.052879)
(0.086557 0.04433 0.02754)
(0.212374 0.0349 -0.001726)
(0.212374 -0.0349 -0.001726)
(0.159106 -0.0225 0.010665)
(0.159106 0.0225 0.010665)
(0.23553 -0.0349 0.076432)
(0.184109 -0.0225 0.095058)
(0.23553 0.0349 0.076432)
(0.184109 0.0225 0.095058)
(0.146976 0.02403 0.108167)
(0.146976 -0.02403 0.108167)
(2.80117 -0.1774 0.851658)
(0.179981 0.114862 0.318308)
(2.12974 -0.424 0.619064)
(2.07456 -0.307321 0.589087)
(2.13037 -0.302044 0.586523)
(2.13031 -0.302288 0.586677)
(2.14126 -0.414385 0.618142)
(2.47313 -0.409768 0.812248)
(2.52897 -0.408669 0.808141)
(2.64297 -0.408748 0.795413)
(2.64471 -0.299623 0.804532)
(2.63914 -0.299299 0.805016)
(2.64275 -0.299539 0.804687)
(2.64185 -0.299455 0.804789)
(2.63997 -0.299333 0.804966)
(2.63811 -0.299283 0.805053)
(2.63603 -0.29925 0.805128)
(2.71088 -0.408409 0.785882)
(2.70954 -0.408536 0.786056)
(2.70871 -0.408598 0.786128)
(2.69993 -0.299251 0.795556)
(2.70303 -0.2993 0.795385)
(2.70133 -0.299273 0.795479)
(2.70079 -0.299264 0.795508)
(2.71016 -0.299778 0.794557)
(2.70851 -0.299683 0.794752)
(2.70582 -0.299472 0.795082)
(2.70822 -0.299641 0.794792)
(2.70387 -0.299334 0.795319)
(2.58176 -0.299331 0.812575)
(2.58318 -0.299421 0.81247)
(2.58395 -0.299469 0.812412)
(2.58483 -0.299525 0.812346)
(2.58094 -0.299298 0.81261)
(2.52491 -0.29933 0.818811)
(2.52243 -0.299271 0.818826)
(2.52097 -0.299248 0.818823)
(2.52268 -0.299275 0.818827)
(2.5241 -0.299297 0.81883)
(2.5233 -0.409067 0.808231)
(2.52229 -0.40911 0.808214)
(2.52138 -0.409126 0.808181)
(2.52071 -0.409137 0.808157)
(2.52668 -0.40883 0.808178)
(2.52588 -0.408886 0.80819)
(2.52747 -0.408774 0.808165)
(2.13062 -0.302259 0.586288)
(2.13079 -0.303176 0.586066)
(2.12974 0.424 0.619054)
(2.1297 0.412617 0.618852)
(2.14193 0.415455 0.618165)
(2.14159 0.414982 0.61815)
(2.14144 0.414734 0.618141)
(2.14117 0.414146 0.61814)
(2.14126 0.414385 0.618142)
(2.14109 0.413816 0.618159)
(2.22176 0.416737 0.614962)
(2.13037 0.302044 0.586523)
(2.64474 0.410082 0.795352)
(2.52897 0.408669 0.808141)
(2.58598 0.408658 0.802461)
(2.58019 0.409056 0.802672)
(2.58415 0.408724 0.802517)
(2.58359 0.408829 0.802559)
(2.57763 0.409137 0.802679)
(2.5792 0.40911 0.802698)
(2.63456 0.409159 0.795729)
(2.63849 0.409066 0.795679)
(2.63947 0.408996 0.795621)
(2.64186 0.408828 0.79548)
(2.64297 0.408748 0.795413)
(2.64424 0.408657 0.795336)
(2.63523 0.409148 0.795724)
(2.63589 0.409136 0.795719)
(2.63746 0.40911 0.795706)
(2.64474 0.408881 0.795354)
(2.64475 0.40863 0.795296)
(2.64565 0.300116 0.787249)
(2.64522 0.299683 0.795573)
(2.64475 0.408248 0.795223)
(2.63513 0.408161 0.794851)
(2.63905 0.408208 0.795227)
(2.64185 0.299455 0.804789)
(2.63997 0.299333 0.804966)
(2.70954 0.408536 0.786056)
(2.70247 0.409066 0.786669)
(2.70668 0.40875 0.786304)
(2.70748 0.40869 0.786234)
(2.70829 0.40863 0.786165)
(2.70871 0.408598 0.786128)
(2.70507 0.408871 0.786443)
(2.70588 0.40881 0.786373)
(2.70144 0.40911 0.786717)
(2.69987 0.409136 0.786761)
(2.70851 0.299661 0.794757)
(2.70387 0.299334 0.795319)
(2.70133 0.299273 0.795479)
(2.70079 0.299264 0.795508)
(2.69993 0.299251 0.795556)
(2.71017 0.299765 0.794562)
(2.70582 0.299472 0.795082)
(2.58094 0.299298 0.81261)
(2.58176 0.299331 0.812575)
(2.52411 0.299273 0.818878)
(2.52268 0.299283 0.818793)
(2.52097 0.299248 0.818823)
(2.52243 0.299271 0.818826)
(2.5233 0.409067 0.808231)
(2.52588 0.408886 0.80819)
(2.52668 0.40883 0.808178)
(2.52747 0.408774 0.808165)
(2.52071 0.409137 0.808157)
(2.52229 0.40911 0.808214)
(2.52138 0.409126 0.808181)
(2.5189 0.408149 0.807049)
(2.14094 0.41225 0.618178)
(2.17316 0.303669 0.586058)
(2.13233 0.313201 0.573769)
(0.266393 -1.47575 0.341584)
(0.385003 -1.6 0.341164)
(0.354721 -1.6 0.398508)
(0.384999 -1.6 0.340031)
(0.355 -1.6 0.399468)
(0.299441 -1.77257 0.349861)
(0.301142 -1.77316 0.349782)
(0.308416 -1.7756 0.349441)
(0.429196 -1.8082 0.343793)
(0.460716 -1.81627 0.341991)
(0.142053 -1.64893 0.356358)
(0.165416 -1.68012 0.3556)
(0.183084 -1.6992 0.355294)
(0.17711 -1.6931 0.355166)
(0.178712 -1.69478 0.355104)
(0.18642 -1.70247 0.355132)
(0.178176 -1.69422 0.355125)
(0.18033 -1.69644 0.355042)
(0.179789 -1.69589 0.355063)
(0.187546 -1.70356 0.355077)
(0.196783 -1.71203 0.354512)
(0.206356 -1.72015 0.354093)
(0.216171 -1.72786 0.353748)
(0.226179 -1.73503 0.353227)
(0.130215 -1.62938 0.356673)
(2.43858 -0.14972 0.508882)
(2.43294 -0.14888 0.500892)
(2.43019 -0.15241 0.487853)
(2.43061 -0.141185 0.489341)
(2.43433 -0.133076 0.494219)
(2.43561 -0.13116 0.494933)
(2.4371 -0.129133 0.495534)
(2.41349 -0.625632 0.07067)
(2.4371 0.129133 0.495534)
(2.43561 0.13116 0.494933)
(2.43322 0.134944 0.493379)
(2.43238 0.136535 0.492544)
(2.43061 0.141185 0.489341)
(2.43433 0.133076 0.494219)
(2.41349 0.625632 0.07067)
(1.76045 -0.424 0.709723)
(2.13069 -0.302306 0.586239)
(2.1305 -0.302271 0.5864)
(2.13071 -0.303148 0.586129)
(2.13093 -0.303135 0.585994)
(2.58013 0.299305 0.812571)
(2.50225 -0.720635 -0.044213)
(2.50096 -0.720647 -0.044423)
(2.46792 -0.720635 -0.04979)
(2.50096 0.720622 -0.044423)
(2.50225 0.720635 -0.044213)
(2.46792 0.720635 -0.04979)
(2.70909 -0.40857 0.786095)
(2.64344 0.408715 0.795386)
(2.70909 0.40857 0.786095)
(2.58076 0.299296 0.812613)
(2.72335 -3.98228 0.649697)
(2.72126 -3.9819 0.648361)
(2.73126 -3.98345 0.655132)
(2.72867 -3.98307 0.653354)
(2.73797 -3.98417 0.66071)
(2.73748 -3.98412 0.660269)
(2.74022 -3.9843 0.663026)
(2.73908 -3.98423 0.661848)
(3.16332 -3.907 0.785677)
(3.15727 -3.9064 0.786884)
(3.16656 -3.90738 0.784969)
(3.14796 -3.90548 0.788739)
(3.14028 -3.90472 0.790269)
(3.1401 -3.9047 0.790306)
(3.13864 -3.90458 0.790568)
(3.12929 -3.90382 0.792251)
(3.09471 -3.90141 0.798048)
(3.09174 -3.90127 0.798471)
(3.1071 -3.90219 0.796053)
(3.11054 -3.90241 0.795499)
(3.11717 -3.90283 0.794433)
(3.07259 -3.90043 0.801198)
(3.05395 -3.89998 0.803513)
(3.07287 -3.90044 0.801158)
(3.07368 -3.90048 0.801043)
(3.03983 -3.89987 0.805067)
(3.03499 -3.89986 0.805583)
(3.051 -3.89991 0.803879)
(3.02988 -3.89984 0.806126)
(3.02277 -3.89998 0.806759)
(3.016 -3.90011 0.807362)
(3.0094 -3.90023 0.80795)
(3.00559 -3.90039 0.808225)
(2.997 -3.90075 0.808846)
(2.98957 -3.90107 0.809381)
(2.97086 -3.90231 0.810427)
(2.97042 -3.90234 0.810451)
(2.959 -3.9034 0.810908)
(2.97799 -3.90184 0.810028)
(2.98829 -3.90115 0.809453)
(2.8838 -3.91578 0.811274)
(2.88171 -3.91632 0.81118)
(2.87551 -3.91792 0.810898)
(2.87254 -3.91879 0.810674)
(2.86545 -3.92088 0.810139)
(2.86324 -3.92159 0.809915)
(2.85507 -3.9243 0.809008)
(2.86483 -3.92106 0.810092)
(2.84756 -3.9271 0.807852)
(2.84644 -3.92752 0.807678)
(2.84406 -3.9285 0.80719)
(2.83911 -3.93056 0.80617)
(2.83888 -3.93065 0.806123)
(2.85377 -3.92479 0.808808)
(2.83167 -3.93393 0.804175)
(2.83049 -3.93451 0.80376)
(2.8387 -3.93073 0.806085)
(2.83399 -3.93287 0.804807)
(2.82329 -3.93819 0.801046)
(2.82246 -3.93864 0.800679)
(2.82518 -3.93716 0.801889)
(2.82873 -3.93539 0.803141)
(2.81166 -3.94498 0.794774)
(2.80881 -3.94681 0.792839)
(2.82049 -3.93971 0.7998)
(2.81928 -3.94036 0.799264)
(2.81761 -3.94135 0.798339)
(2.81489 -3.94296 0.796836)
(2.81468 -3.94308 0.796721)
(2.81387 -3.94356 0.796271)
(2.80398 -3.95018 0.788837)
(2.80242 -3.95136 0.787281)
(2.80551 -3.94911 0.790113)
(2.80706 -3.94803 0.791394)
(2.80863 -3.94694 0.79269)
(2.80793 -3.94743 0.79211)
(2.80166 -3.95193 0.786524)
(2.80088 -3.95251 0.785748)
(2.79982 -3.9533 0.784695)
(2.79936 -3.95367 0.784142)
(2.79784 -3.95487 0.782336)
(2.79635 -3.95605 0.780562)
(2.79604 -3.9563 0.780191)
(2.79542 -3.95679 0.779451)
(2.7949 -3.95723 0.778712)
(2.79349 -3.95841 0.776702)
(2.78715 -3.96389 0.766363)
(2.78677 -3.96424 0.765585)
(2.78954 -3.96178 0.770548)
(2.78831 -3.96285 0.768474)
(2.78799 -3.96312 0.767945)
(2.7921 -3.95956 0.77473)
(2.79161 -3.95997 0.774027)
(2.7911 -3.96042 0.773166)
(2.7908 -3.96068 0.772659)
(2.77992 -3.97097 0.749146)
(2.77946 -3.97146 0.747802)
(2.78084 -3.97001 0.751826)
(2.78137 -3.96947 0.753338)
(2.78242 -3.96842 0.755895)
(2.7831 -3.96775 0.757524)
(2.78414 -3.96672 0.760034)
(2.7846 -3.96626 0.76115)
(2.78508 -3.96582 0.762125)
(2.78611 -3.96486 0.764229)
(2.77827 -3.97269 0.744366)
(2.77813 -3.97286 0.743846)
(2.77721 -3.97393 0.74051)
(2.77707 -3.97409 0.740021)
(2.77602 -3.97531 0.736234)
(2.77585 -3.97552 0.735588)
(2.77486 -3.97661 0.731673)
(2.77409 -3.97746 0.728588)
(2.77357 -3.97804 0.72649)
(2.77254 -3.9789 0.722728)
(2.77193 -3.9794 0.72051)
(2.7713 -3.97993 0.718172)
(2.76987 -3.98073 0.713776)
(2.76914 -3.98115 0.711511)
(2.76872 -3.98138 0.710219)
(2.76667 -3.98214 0.704928)
(2.76571 -3.98249 0.702471)
(2.76282 -3.98316 0.696287)
(2.76211 -3.98332 0.694768)
(2.75832 -3.98383 0.687933)
(2.75782 -3.98389 0.687045)
(2.75325 -3.98422 0.679892)
(2.74809 -3.98436 0.672757)
(2.74766 -3.98436 0.67221)
(2.7426 -3.98435 0.66584)
(2.74207 -3.98433 0.66521)
(2.74061 -3.9843 0.66349)
(2.7358 -3.98397 0.65877)
(2.73527 -3.98393 0.658289)
(2.73407 -3.98379 0.657347)
(2.73231 -3.98358 0.655959)
(2.72351 -3.9823 0.649805)
(2.71328 -3.98044 0.64326)
(2.95328 -3.90393 0.811137)
(2.95217 -3.90403 0.811182)
(2.94005 -3.90549 0.811483)
(2.93558 -3.90602 0.811594)
(2.93486 -3.90611 0.811612)
(2.92117 -3.90816 0.811751)
(2.91858 -3.90855 0.811778)
(2.9306 -3.90675 0.811655)
(2.91775 -3.9087 0.811774)
(2.91647 -3.90894 0.811769)
(2.91178 -3.9098 0.81175)
(2.90952 -3.91023 0.811725)
(2.9065 -3.91076 0.811728)
(2.90401 -3.91122 0.811718)
(2.90109 -3.91181 0.811686)
(2.89992 -3.91207 0.811666)
(2.90141 -3.91175 0.811697)
(2.89949 -3.91216 0.811658)
(2.89919 -3.91223 0.811652)
(2.90533 -3.91098 0.811723)
(2.89716 -3.91268 0.811616)
(2.89308 -3.91358 0.811543)
(2.88842 -3.91462 0.811459)
(2.88751 -3.91482 0.811443)
(3.20349 -3.9119 0.776603)
(3.19889 -3.9113 0.777688)
(3.19429 -3.9107 0.778774)
(3.18968 -3.9101 0.77986)
(3.18689 -3.90974 0.780519)
(3.18507 -3.90953 0.780917)
(3.18044 -3.90899 0.78193)
(3.17581 -3.90845 0.782943)
(3.17316 -3.90814 0.783525)
(3.1774 -0.424 0.7042)
(3.17674 -0.424 0.699379)
(3.16486 -0.424 0.705693)
(3.16828 -0.424 0.699697)
(3.1547 -0.424 0.707217)
(3.1536 -0.424 0.699472)
(3.11951 -0.424 0.712496)
(3.1358 -0.424 0.699198)
(3.13048 -0.424 0.698866)
(3.10945 -0.424 0.714268)
(1.7579 -0.424 0.686937)
(1.75747 -0.424 0.687718)
(1.7582 -0.424 0.686481)
(1.75566 -0.424 0.700175)
(1.75511 -0.424 0.695922)
(1.75514 -0.424 0.696628)
(1.7576 -0.424 0.705315)
(1.75772 -0.424 0.705522)
(1.75857 -0.424 0.707008)
(1.76815 -0.424 0.676985)
(1.76741 -0.424 0.677495)
(1.76622 -0.424 0.67831)
(1.76172 -0.424 0.682091)
(1.76083 -0.424 0.68307)
(1.76286 -0.424 0.68102)
(1.75519 -0.424 0.697344)
(1.75527 -0.424 0.698057)
(1.75562 -0.424 0.700038)
(1.75551 -0.424 0.699473)
(1.75537 -0.424 0.698768)
(1.75533 -0.424 0.698554)
(1.75604 -0.424 0.701559)
(1.75654 -0.424 0.702907)
(1.75676 -0.424 0.703516)
(1.76112 -0.424 0.710514)
(1.76259 -0.424 0.712095)
(1.76614 -0.424 0.715207)
(1.76839 -0.424 0.716988)
(1.7687 -0.424 0.717227)
(1.77077 -0.424 0.718596)
(1.77317 -0.424 0.720177)
(1.78065 -0.424 0.724469)
(1.78396 -0.424 0.726285)
(1.78575 -0.424 0.727101)
(1.79621 -0.424 0.731875)
(1.80363 -0.424 0.735261)
(1.8175 -0.424 0.74054)
(1.8295 -0.424 0.745111)
(1.83918 -0.424 0.748166)
(1.86102 -0.424 0.755062)
(1.88332 -0.424 0.761023)
(1.90145 -0.424 0.765872)
(1.90556 -0.424 0.7668)
(2.0041 -0.424 0.62934)
(1.9799 -0.424 0.631803)
(1.95819 -0.424 0.634576)
(1.84368 -0.424 0.653144)
(1.82169 -0.424 0.658401)
(1.84417 -0.424 0.653049)
(1.81475 -0.424 0.66006)
(1.7994 -0.424 0.664477)
(1.79776 -0.424 0.664948)
(1.78841 -0.424 0.668041)
(1.7854 -0.424 0.669037)
(1.78298 -0.424 0.670006)
(1.77762 -0.424 0.672155)
(1.77686 -0.424 0.67246)
(1.77241 -0.424 0.674624)
(1.77127 -0.424 0.67518)
(2.56724 -0.424 0.804558)
(2.57721 -0.424 0.803594)
(2.05008 -0.424 0.624856)
(2.04212 -0.424 0.625469)
(1.92715 -0.424 0.63854)
(1.91241 -0.424 0.640907)
(1.8896 -0.424 0.644573)
(1.75988 -0.424 0.684152)
(1.75901 -0.424 0.685292)
(1.75597 -0.424 0.69098)
(1.75922 -0.424 0.707974)
(1.75962 -0.424 0.708571)
(1.75984 -0.424 0.708907)
(1.76289 -0.424 0.712374)
(1.76395 -0.424 0.713347)
(1.76495 -0.424 0.714268)
(1.77499 -0.424 0.721376)
(1.7756 -0.424 0.72171)
(2.60331 -0.424 0.630808)
(2.57663 -0.424 0.627671)
(2.61278 -0.424 0.799278)
(2.64181 -0.424 0.795755)
(2.64919 -0.424 0.636202)
(2.65823 -0.424 0.7934)
(2.65153 -0.424 0.636478)
(1.92798 -0.424 0.771862)
(1.94217 -0.424 0.775065)
(1.95046 -0.424 0.776644)
(1.97304 -0.424 0.780942)
(1.99167 -0.424 0.78449)
(2.01832 -0.424 0.788734)
(2.04224 -0.424 0.792544)
(1.76343 -0.424 0.680483)
(1.76394 -0.424 0.680071)
(1.76506 -0.424 0.679168)
(1.76005 -0.424 0.683943)
(1.76562 -0.424 0.678722)
(1.75882 -0.424 0.685528)
(1.87828 -0.424 0.646392)
(1.86685 -0.424 0.648622)
(1.75552 -0.424 0.692515)
(1.75585 -0.424 0.691334)
(1.75541 -0.424 0.693058)
(1.7553 -0.424 0.693668)
(1.7552 -0.424 0.694477)
(2.69496 -0.424 0.642397)
(2.7036 -0.424 0.786891)
(2.74075 -0.424 0.648635)
(1.75692 -0.424 0.688693)
(1.75649 -0.424 0.689641)
(1.75632 -0.424 0.690027)
(3.10738 -0.424 0.697426)
(3.10147 -0.424 0.697057)
(3.06434 -0.424 0.722209)
(3.06132 -0.424 0.693006)
(3.05828 -0.424 0.723277)
(3.05396 -0.424 0.692262)
(3.01931 -0.424 0.73059)
(3.01539 -0.424 0.687439)
(3.00604 -0.424 0.733081)
(2.97322 -0.424 0.682162)
(2.92929 -0.424 0.747617)
(2.96951 -0.424 0.681631)
(2.90013 -0.424 0.753139)
(2.92373 -0.424 0.675075)
(2.83918 -0.424 0.764194)
(2.87233 -0.424 0.667713)
(2.80558 -0.424 0.770286)
(2.83222 -0.424 0.661848)
(2.79406 -0.424 0.772183)
(2.75738 -0.424 0.650902)
(2.74885 -0.424 0.779626)
(2.71222 -0.424 0.785654)
(2.55739 -0.424 0.625813)
(2.51322 -0.424 0.621546)
(2.52161 -0.424 0.808972)
(2.51142 -0.424 0.621418)
(2.51941 -0.424 0.809184)
(2.46535 -0.424 0.618148)
(2.23455 -0.424 0.614735)
(2.18839 -0.424 0.616154)
(2.18416 -0.424 0.616284)
(2.16101 -0.424 0.806351)
(2.20081 -0.424 0.809348)
(2.14226 -0.424 0.618541)
(2.15504 -0.424 0.80574)
(2.10831 -0.424 0.620369)
(2.10935 -0.424 0.801059)
(2.09614 -0.424 0.621306)
(2.1008 -0.424 0.800182)
(2.06378 -0.424 0.795353)
(2.22538 -0.424 0.811199)
(2.24662 -0.424 0.812229)
(2.25633 -0.424 0.614065)
(2.29132 -0.424 0.814399)
(2.28073 -0.424 0.613837)
(2.29246 -0.424 0.814424)
(2.32317 -0.424 0.613441)
(2.33833 -0.424 0.81541)
(2.32691 -0.424 0.613499)
(2.34858 -0.424 0.81563)
(2.37309 -0.424 0.614211)
(2.38421 -0.424 0.815339)
(2.38753 -0.424 0.614434)
(2.4076 -0.424 0.815148)
(2.41923 -0.424 0.615788)
(2.43006 -0.424 0.8143)
(2.45154 -0.424 0.617167)
(2.46207 -0.424 0.813091)
(2.47586 -0.424 0.812151)
(3.2 -3.85202 0.730558)
(3.2 -3.81841 0.729738)
(3.2 -3.85206 0.727558)
(3.2 -3.81841 0.726738)
(3.16052 -1.85 0.70738)
(3.13447 -1.85 0.711718)
(3.14478 -1.85 0.700481)
(3.15969 -1.85 0.700526)
(3.16331 -1.85 0.706915)
(3.16235 -1.85 0.700534)
(2.88094 -1.85 0.668787)
(3.10663 -1.85 0.698467)
(3.11954 -1.85 0.699341)
(3.12097 -1.85 0.714125)
(3.1042 -1.85 0.717114)
(3.12671 -1.85 0.699826)
(3.1396 -1.85 0.700294)
(3.18384 -1.85 0.699749)
(3.19091 -1.85 0.702748)
(3.17977 -1.85 0.69997)
(3.17939 -1.85 0.699991)
(2.94656 -1.85 0.678714)
(2.96018 -1.85 0.680666)
(2.99489 -1.85 0.685643)
(2.95814 -1.85 0.744689)
(2.96319 -1.85 0.743733)
(2.99987 -1.85 0.686293)
(3.03861 -1.85 0.729465)
(3.03245 -1.85 0.690551)
(3.04206 -1.85 0.728808)
(3.03965 -1.85 0.691389)
(3.07232 -1.85 0.723047)
(3.06883 -1.85 0.694782)
(3.08149 -1.85 0.721341)
(3.07954 -1.85 0.695867)
(3.09728 -1.85 0.697664)
(2.85719 -1.853 0.665639)
(2.93809 -1.853 0.747956)
(2.90334 -3.0375 0.672148)
(2.89408 -2.8 0.670843)
(2.88483 -2.5625 0.669537)
(2.87641 -2.34637 0.668348)
(2.91247 -3.272 0.673438)
(2.87558 -2.325 0.668231)
(2.86632 -2.0875 0.666927)
(2.85768 -1.86561 0.665708)
(2.95063 -2.33592 0.747057)
(2.9623 -2.78503 0.746221)
(2.96917 -3.04923 0.74575)
(2.97495 -3.272 0.745354)
(2.94726 -2.20625 0.747759)
(2.95063 -2.33592 0.747522)
(2.93809 -1.853 0.748403)
(2.955 -2.50414 0.747215)
(2.95652 -2.5625 0.747108)
(2.96917 -3.04923 0.746216)
(2.97495 -3.272 0.745807)
(2.86632 -2.0875 0.666483)
(2.85768 -1.86561 0.665263)
(2.87558 -2.325 0.667789)
(2.88289 -2.51275 0.668821)
(2.88483 -2.5625 0.669095)
(2.89408 -2.8 0.670401)
(2.90334 -3.0375 0.671708)
(3.03867 -3.275 0.737215)
(3.03858 -3.275 0.691954)
(2.99452 -3.275 0.685641)
(3.07936 -3.275 0.731726)
(3.15927 -3.275 0.721604)
(3.15948 -3.275 0.708214)
(3.11931 -3.275 0.726626)
(3.11908 -3.275 0.70296)
(3.0879 -3.275 0.730574)
(3.07899 -3.275 0.697745)
(3.07877 -3.275 0.697714)
(2.95819 -3.275 0.680129)
(2.96495 -3.275 0.681183)
(3.20016 -1.25389 0.701488)
(3.19984 -1.25389 0.698512)
(3.2 -3.685 0.726485)
(3.2 -3.54834 0.723151)
(3.2 -3.41167 0.719818)
(3.2 -3.72075 0.724356)
(3.2 -3.57217 0.720732)
(3.2 -3.42358 0.717108)
(2.84098 -3.87895 0.764667)
(2.84206 -3.88205 0.76469)
(3.2 -3.85673 0.730817)
(3.2 -3.85661 0.730811)
(3.2 -3.85624 0.73079)
(3.2 -3.85566 0.730759)
(3.2 -3.85525 0.730736)
(3.2 -3.85476 0.730709)
(3.2 -3.85426 0.730681)
(3.2 -3.85326 0.730626)
(3.2 -3.85811 0.730893)
(3.2 -3.8577 0.730871)
(3.2 -3.85722 0.730844)
(3.2 -3.86161 0.731199)
(3.2 -3.86112 0.731139)
(3.20004 -3.8606 0.731022)
(3.2 -3.86014 0.731021)
(3.2 -3.8599 0.730992)
(3.2 -3.85964 0.730978)
(3.20003 -3.85914 0.730897)
(3.2 -3.85891 0.730938)
(3.2 -3.85867 0.730924)
(3.2 -3.86505 0.731613)
(3.2 -3.86456 0.731554)
(3.2 -3.86407 0.731495)
(3.2 -3.8638 0.731463)
(3.2 -3.86358 0.731436)
(3.2 -3.86309 0.731377)
(3.2 -3.8626 0.731318)
(3.2 -3.86211 0.731258)
(3.2 -3.86198 0.731243)
(2.68175 -3.9653 0.636495)
(2.68227 -3.9658 0.636539)
(2.68271 -3.96618 0.636576)
(2.68415 -3.96742 0.636699)
(2.68461 -3.96781 0.636738)
(2.68486 -3.96798 0.63676)
(2.68713 -3.96963 0.63696)
(2.688 -3.97026 0.637037)
(2.68833 -3.97046 0.637066)
(2.68948 -3.97116 0.637171)
(2.69188 -3.97262 0.637389)
(2.69206 -3.97273 0.637405)
(2.69438 -3.97391 0.637623)
(2.69714 -3.97532 0.637882)
(2.69755 -3.97553 0.637921)
(2.69945 -3.97632 0.638103)
(2.70464 -3.97849 0.638604)
(3.20593 -3.91225 0.776016)
(3.22232 -3.91457 0.77207)
(3.23876 -3.91711 0.767979)
(3.26988 -3.92237 0.757962)
(3.27079 -3.92254 0.75749)
(3.2643 -3.92137 0.760322)
(3.26375 -3.92127 0.760553)
(3.25515 -3.91978 0.763482)
(3.24279 -3.91773 0.766975)
(3.23911 -3.91717 0.767892)
(3.24098 -3.91933 0.694184)
(3.27311 -3.92477 0.700845)
(3.27673 -3.92532 0.70414)
(3.28022 -3.92583 0.707873)
(3.28261 -3.92616 0.710907)
(3.28385 -3.92633 0.712752)
(3.28457 -3.92642 0.71382)
(3.28608 -3.9266 0.716496)
(3.28745 -3.92675 0.719459)
(3.28835 -3.92683 0.721921)
(3.28903 -3.92687 0.724316)
(3.28949 -3.92687 0.726611)
(3.28978 -3.92684 0.729067)
(3.28985 -3.92677 0.731444)
(3.28973 -3.92667 0.733703)
(3.28943 -3.92653 0.735869)
(3.28897 -3.92638 0.73794)
(3.28834 -3.92619 0.739951)
(3.28755 -3.92598 0.741887)
(3.2866 -3.92575 0.743744)
(3.2855 -3.92549 0.745546)
(3.28422 -3.9252 0.747308)
(3.28273 -3.92488 0.749039)
(3.28102 -3.92452 0.750741)
(3.27908 -3.92413 0.752398)
(3.27405 -3.92315 0.755784)
(3.2768 -3.92368 0.754064)
(3.20089 -3.9129 0.689969)
(3.20262 -3.91316 0.690163)
(3.23415 -3.91816 0.693465)
(2.87909 -3.89037 0.656291)
(2.8761 -3.89054 0.655981)
(2.67766 -3.94091 0.636125)
(2.67732 -3.94152 0.6361)
(2.67679 -3.94249 0.636061)
(2.67668 -3.94274 0.636053)
(2.6752 -3.95455 0.63597)
(2.67529 -3.95494 0.635977)
(2.67886 -3.96208 0.636259)
(2.67899 -3.96224 0.636269)
(2.6803 -3.9638 0.636375)
(2.68079 -3.96431 0.636416)
(2.68023 -3.96372 0.636369)
(2.67751 -3.96009 0.636152)
(2.67782 -3.96061 0.636177)
(2.67688 -3.95898 0.636102)
(2.67697 -3.95918 0.63611)
(2.67719 -3.95954 0.636127)
(2.67608 -3.95727 0.63604)
(2.67628 -3.95778 0.636056)
(2.67574 -3.95644 0.636013)
(2.67585 -3.9567 0.636021)
(2.67534 -3.95514 0.635981)
(2.67546 -3.95553 0.63599)
(2.67564 -3.95612 0.636005)
(2.67494 -3.95311 0.635946)
(2.67502 -3.95374 0.635954)
(2.6748 -3.95184 0.635934)
(2.67483 -3.95236 0.635937)
(2.67476 -3.95099 0.635928)
(2.67477 -3.95119 0.635929)
(2.6748 -3.94961 0.635927)
(2.67479 -3.94988 0.635927)
(2.67477 -3.95054 0.635928)
(2.67491 -3.94857 0.635933)
(2.67484 -3.94924 0.635929)
(2.675 -3.94791 0.635938)
(2.67495 -3.9482 0.635935)
(2.67527 -3.94658 0.635955)
(2.67522 -3.94676 0.635952)
(2.67513 -3.94724 0.635946)
(2.67546 -3.94593 0.635967)
(2.67561 -3.94537 0.635978)
(2.67803 -3.94033 0.636154)
(2.67964 -3.93806 0.636278)
(2.67873 -3.93925 0.636207)
(2.68052 -3.93699 0.636349)
(2.68005 -3.93752 0.63631)
(2.68398 -3.93342 0.636636)
(2.68237 -3.93498 0.6365)
(2.6821 -3.93524 0.636478)
(2.6819 -3.93544 0.636461)
(2.68432 -3.93314 0.636665)
(2.6926 -3.92708 0.637401)
(2.69168 -3.92762 0.637317)
(2.69043 -3.92849 0.637205)
(2.68844 -3.92989 0.637026)
(2.68716 -3.93079 0.636911)
(2.69783 -3.92401 0.637885)
(2.69672 -3.92466 0.637783)
(2.69972 -3.92309 0.638065)
(2.70082 -3.92256 0.63817)
(2.70486 -3.9206 0.638554)
(2.70948 -3.91856 0.638999)
(2.7069 -3.91961 0.638749)
(2.71455 -3.91648 0.639492)
(2.71283 -3.91718 0.639325)
(2.72849 -3.91181 0.640872)
(2.72074 -3.91441 0.640105)
(2.71957 -3.9148 0.639989)
(2.73618 -3.90954 0.64164)
(2.73243 -3.9105 0.641262)
(2.74018 -3.90853 0.642042)
(2.74388 -3.90759 0.642415)
(2.76114 -3.90351 0.644158)
(2.75612 -3.90447 0.643648)
(2.75155 -3.90564 0.643187)
(2.78038 -3.89981 0.646116)
(2.76694 -3.9024 0.644748)
(2.78229 -3.89954 0.646312)
(2.7824 -3.89952 0.646323)
(2.82477 -3.89419 0.650675)
(2.81377 -3.89526 0.649541)
(2.80923 -3.8957 0.649074)
(2.80354 -3.89651 0.64849)
(2.8422 -3.89248 0.652472)
(2.83759 -3.89293 0.651997)
(2.82965 -3.89371 0.651178)
(2.8608 -3.89142 0.654397)
(2.84591 -3.89227 0.652856)
(2.90155 -3.88974 0.658622)
(2.89133 -3.89003 0.657561)
(2.84537 -3.8923 0.6528)
(2.86696 -3.89107 0.655035)
(2.67866 -3.93935 0.636202)